ELEMENTS
H D /2.014/ T /3.016/ C CI /13.003/ 
O OI /18.0/ N Ne Ar 
He Si S Cl X /195.083/ 
END
SPECIES
CH4(1) CH3(2) H2(3) C2H2(4) C2H4(5) 
C6H6(6) C10H8(7) H(8) H2CC(26) CH2(S)(27) 
C2H3(32) C2H6(33) C2H5(34) C6H5(42) C10H7(43) 
C10H7(44) C6H7(48) C10H9(51) C3H5(52) C3H7(53) 
C7H9(54) C4H7(57) C3H6(61) C3H7(62) C4H5(68) 
C4H7(69) C8H9(70) C4H8(71) C4H6(73) C3H4(74) 
C3H5(75) allyl(76) C4H8(77) C5H9(79) C5H8(83) 
C3H3(85) C4H7(89) C5H7(95) allene(98) C5H8(105) 
C4H7(111) C4H9(126) C5H9(132) C5H7(162) C4H6(182) 
C4H6(183) C5H5(185) C5H6(194) CC#CC(221) C4H7(222) 
C4H4(285) C4H5(286) C5H5(374) C5H5(376) C4H6(582) 
C5H9(585) C4H5(712) C5H9(716) C4H8(787) C5H9(895) 
C5H9(969) C5H7(1075) C5H7(1126) C5H7(1127) C4H3(1177) 
C4H3(1178) C5H7(1184) C5H7(1887) C5H6(2013) C5H7(2014) 
C5H6(2393) C5H6(2736) C5H5(2823) C5H5(2824) C5H6(2826) 
C6H8(3429) C7H7(3430) C6H8(3542) C7H7(3543) C6H7(3755) 
C5H4(3877) C5H5(3879) C6H7(4060) C6H7(4199) C6H8(4203) 
C6H7(4471) C5H5(6010) C5H5(6011) C4H2(6969) C7H7(6975) 
C7H7(7006) C6H5(7493) C5H4(7919) C5H4(8153) C5H3(9199) 
S(11001) S(14351) S(14649) S(15154) S(15155) 
S(15156) S(15157) S(15159) S(15162) S(15166) 
S(15167) S(15169) S(15170) S(15209) S(15219) 
S(15220) S(15231) S(15438) S(15439) S(15441) 
S(15477) S(15478) S(15480) S(15495) S(15504) 
S(15551) S(15564) S(15569) S(15721) S(15857) 
S(16167) S(16174) S(16328) S(16481) S(17707) 
S(17714) S(17725) S(18023) S(18031) S(18046) 
S(18048) S(18049) S(18050) S(18057) S(18068) 
S(18231) S(18319) S(19408) S(19468) S(19470) 
S(20314) S(20320) S(20321) S(20399) S(20423) 
S(20424) S(20425) S(20911) S(21090) S(22884) 
S(25300) S(25303) S(25304) S(25404) S(25405) 
S(25668) S(25693) S(25706) S(25715) S(25862) 
S(26281) S(26283) S(26290) S(26846) S(30118) 
S(30119) S(30194) S(30588) S(30618) S(30691) 
S(30711) S(30727) S(30752) S(30753) S(30759) 
S(30762) S(31121) S(31187) S(31188) S(31189) 
S(31191) S(31192) S(31193) S(31266) S(32986) 
S(33142) S(33150) S(33153) S(33162) S(36479) 
S(36900) S(36901) S(40490) S(40495) S(40572) 
S(40574) S(40575) 
END

THERMO ALL
  300.000  1000.000  5000.000
CH4(1)                  C   1H   4          G     200.0    6000.0  1000.0      1
      1.65326E0     1.00263E-2    -3.31661E-6    5.36483E-10   -3.14697E-14    2
     -1.00096E4      9.90506E0      5.14911E0    -1.36622E-2     4.91454E-5    3
    -4.84247E-8    1.66603E-11     -1.02466E4     -4.63849E0                   4
CH3(2)                  C   1H   3          G     200.0    6000.0  1000.0      1
      2.97812E0     5.79785E-3    -1.97558E-6    3.07298E-10   -1.79174E-14    2
      1.65095E4      4.72248E0      3.65718E0      2.1266E-3     5.45839E-6    3
     -6.6181E-9    2.46571E-12      1.64227E4      1.67354E0                   4
H2(3)                   H   2               G     200.0    6000.0  1000.0      1
      2.93287E0     8.26608E-4    -1.46402E-7      1.541E-11   -6.88805E-16    2
     -8.13066E2     -1.02433E0      2.34433E0     7.98052E-3    -1.94782E-5    3
     2.01572E-8   -7.37612E-12     -9.17935E2      6.8301E-1                   4
C2H2(4)                 C   2H   2          G     200.0    6000.0  1000.0      1
      4.65878E0     4.88397E-3    -1.60829E-6    2.46975E-10   -1.38606E-14    2
      2.57594E4     -3.99838E0      8.0868E-1     2.33616E-2    -3.55172E-5    3
     2.80153E-8   -8.50075E-12       2.6429E4      1.39397E1                   4
C2H4(5)                 C   2H   4          G     200.0    6000.0  1000.0      1
      3.99183E0     1.04834E-2    -3.71721E-6    5.94628E-10    -3.5363E-14    2
      4.26866E3    -2.69082E-1       3.9592E0    -7.57051E-3      5.7099E-5    3
    -6.91588E-8    2.69884E-11      5.08978E3       4.0973E0                   4
C6H6(6)                 C   6H   6          G     100.0    5000.0  949.24      1
   1.25210214E1  1.65024552E-2 -4.66524154E-6 8.85737202E-10-7.16100815E-14    2
   4.05217515E3  -4.72612496E1   2.88774589E0  3.39714953E-3  1.00900059E-4    3
 -1.32850659E-7 5.08462006E-11    8.3003093E3   1.14551648E1                   4
C10H8(7)                C  10H   8          G     100.0    5000.0  989.77      1
    1.6563853E1  3.35435649E-2  -1.3101992E-5  2.55305893E-9-1.90085217E-13    2
   9.34804193E3  -6.94105126E1   1.16855866E0  3.93917981E-2  6.34622923E-5    3
 -1.06557013E-7 4.19028259E-11   1.51567276E4   1.86528343E1                   4
H(8)                    H   1               G     200.0    6000.0  1000.0      1
          2.5E0          0.0E0          0.0E0          0.0E0          0.0E0    2
      2.54737E4    -4.46683E-1          2.5E0          0.0E0          0.0E0    3
          0.0E0          0.0E0      2.54737E4    -4.46683E-1                   4
H2CC(26)                C   2H   2          G     200.0    6000.0  1000.0      1
      4.27807E0     4.75623E-3    -1.63007E-6    2.54623E-10    -1.4886E-14    2
       4.8014E4     6.39979E-1      3.28155E0     6.97643E-3    -2.38528E-6    3
    -1.21078E-9    9.82042E-13      4.83192E4      5.92036E0                   4
CH2(S)(27)              C   1H   2          G     200.0    6000.0  1000.0      1
      3.13502E0     2.89594E-3    -8.16668E-7    1.13573E-10   -6.36263E-15    2
      5.05041E4      4.06031E0      4.19331E0    -2.33105E-3     8.15676E-6    3
    -6.62986E-9    1.93233E-12      5.03662E4    -7.46734E-1                   4
C2H3(32)                C   2H   3          G     200.0    6000.0  1000.0      1
      4.15027E0     7.54021E-3    -2.62998E-6    4.15974E-10   -2.45408E-14    2
      3.38566E4      1.72812E0      3.36378E0     2.65766E-4     2.79621E-5    3
    -3.72987E-8     1.5159E-11       3.4475E4       7.9151E0                   4
C2H6(33)                C   2H   6          G     200.0    6000.0  1000.0      1
      4.04666E0     1.53539E-2    -5.47039E-6    8.77827E-10   -5.23168E-14    2
     -1.24473E4    -9.68698E-1      4.29143E0    -5.50155E-3     5.99438E-5    3
    -7.08466E-8    2.68686E-11     -1.15222E4      2.66679E0                   4
C2H5(34)                C   2H   5          G     200.0    6000.0  1000.0      1
      4.32196E0     1.23931E-2    -4.39681E-6     7.0352E-10   -4.18435E-14    2
      1.21759E4     1.71104E-1      4.24186E0    -3.56905E-3     4.82667E-5    3
    -5.85401E-8    2.25805E-11       1.2969E4      4.44704E0                   4
C6H5(42)                C   6H   5          G     100.0    5000.0  938.83      1
   1.25686237E1   1.2745025E-2 -2.83410617E-6  4.9703429E-10-4.18280353E-14    2
   3.50253138E4    -4.351956E1   2.84110682E0  6.98567015E-3  8.17876723E-5    3
 -1.13148743E-7 4.44819217E-11    3.8932138E4   1.38753975E1                   4
C10H7(43)               C  10H   7          G     100.0    5000.0  984.75      1
   1.65584846E1   2.9872673E-2 -1.13193173E-5  2.17555541E-9  -1.612167E-13    2
   4.03445585E4  -6.57739704E1   1.12044339E0  4.30104406E-2  4.41758612E-5    3
 -8.65113582E-8 3.53309751E-11   4.57886138E4   2.06721405E1                   4
C10H7(44)               C  10H   7          G     100.0    5000.0  984.75      1
   1.65584846E1   2.9872673E-2 -1.13193173E-5  2.17555541E-9  -1.612167E-13    2
   4.03445585E4  -6.57739704E1   1.12044339E0  4.30104406E-2  4.41758612E-5    3
 -8.65113582E-8 3.53309751E-11   4.57886138E4   2.06721405E1                   4
C6H7(48)                C   6H   7          G     100.0    5000.0 1051.47      1
   8.26331387E0  2.94391988E-2 -1.26583347E-5  2.45534972E-9-1.76993386E-13    2
   1.95763787E4  -2.13928589E1   2.41084433E0  2.38203379E-2  3.51345719E-5    3
 -5.30671552E-8 1.90206321E-11   2.23484539E4   1.44651137E1                   4
C10H9(51)               C  10H   9          G     100.0    5000.0  1027.8      1
   1.51652488E1  4.02785545E-2 -1.70325494E-5  3.32937562E-9-2.43140811E-13    2
  -3.80398149E3  -5.88465244E1  9.24010891E-1  4.77233691E-2  4.21240074E-5    3
 -8.04596983E-8 3.11848421E-11   1.65767542E3    2.2578071E1                   4
C3H5(52)                C   3H   5          G     100.0    5000.0  988.72      1
   5.81117496E0  1.40188975E-2  -5.2109034E-6 9.48996879E-10 -6.6771794E-14    2
    2.9513133E4  -5.37299967E0    3.2279984E0  1.18522955E-2  1.72178031E-5    3
 -2.70808156E-8 1.02841315E-11   3.06406476E4   1.01787457E1                   4
C3H7(53)                C   3H   7          G     100.0    5000.0  984.47      1
   6.16546668E0  1.84494026E-2 -6.79026098E-6  1.23048412E-9-8.63859742E-14    2
   9.09504645E3  -6.67624892E0   3.02814653E0  1.47024406E-2   2.4050597E-5    3
  -3.6673334E-8 1.38609211E-11    1.0512055E4   1.24699036E1                   4
C7H9(54)                C   7H   9          G     100.0    5000.0 1041.13      1
   1.06553705E1   3.4953343E-2 -1.46282423E-5   2.8074237E-9-2.01640971E-13    2
   1.49181707E4  -3.30619731E1   1.72237041E0  3.64624125E-2  3.04701442E-5    3
 -5.63403905E-8 2.12696725E-11   1.85565525E4   1.89348736E1                   4
C4H7(57)                C   4H   7          G     100.0    5000.0 1012.54      1
   7.74085821E0  2.03540568E-2 -7.74601775E-6  1.41033878E-9-9.84404336E-14    2
   2.60852819E4  -1.37522827E1    2.5215653E0  2.59936981E-2  6.08948354E-6    3
 -2.23093481E-8  9.3653682E-12   2.79100805E4   1.52845337E1                   4
C3H6(61)                C   3H   6          G     100.0    5000.0  983.76      1
   5.36759464E0  1.70742287E-2 -6.35103391E-6  1.16618527E-9-8.27611953E-14    2
  -4.87156277E2  -4.54491672E0    3.3191098E0  8.17972202E-3  3.34731267E-5    3
 -4.36187241E-8 1.58210564E-11   7.49325808E2   9.54029058E0                   4
C3H7(62)                C   3H   7          G     100.0    5000.0 1029.98      1
   4.36579577E0  2.14399965E-2 -8.48561277E-6  1.56802294E-9-1.09813526E-13    2
   8.03957882E3   2.70073501E0   3.23519276E0  1.11015187E-2  2.80216733E-5    3
 -3.59462428E-8 1.23658831E-11   9.05375524E3   1.19813325E1                   4
C4H5(68)                C   4H   5          G     100.0    5000.0  937.71      1
   1.29703098E1   6.6915482E-3 -1.00086834E-6 1.67640876E-10-1.71469293E-14    2
   3.82797515E4  -4.39466489E1   2.64260653E0   1.6333059E-2  3.86248553E-5    3
 -6.71409059E-8 2.83617525E-11   4.17296342E4   1.32818371E1                   4
C4H7(69)                C   4H   7          G     100.0    5000.0 1051.01      1
   7.36567536E0   2.1061808E-2 -8.19306437E-6  1.49012991E-9-1.03097424E-13    2
    2.1432996E4  -1.12177023E1   2.48599921E0  2.77404163E-2 -7.51306911E-7    3
 -1.39967688E-8 6.14172518E-12   2.31155601E4   1.56915308E1                   4
C8H9(70)                C   8H   9          G     100.0    5000.0 1237.82      1
   1.21748444E1  3.76279209E-2 -1.63070791E-5  3.06475141E-9-2.12733234E-13    2
   2.69287377E4  -3.97699353E1   1.01074928E0  5.63686231E-2 -1.80092409E-5    3
 -7.33307427E-9 4.17249316E-12   3.10206607E4    2.1836922E1                   4
C4H8(71)                C   4H   8          G     100.0    5000.0 1007.28      1
   7.20513369E0  2.36362211E-2 -9.03153724E-6  1.65393537E-9-1.16019981E-13    2
  -3.79732331E3  -1.24424117E1   2.58773806E0  2.32776896E-2   1.9341614E-5    3
 -3.55501273E-8 1.36908114E-11  -1.91872964E3   1.45750296E1                   4
C4H6(73)                C   4H   6          G     100.0    5000.0  946.05      1
   1.24694578E1  1.00552417E-2 -2.41198204E-6 4.57056641E-10-3.93143316E-14    2
   8.01074272E3  -4.36379532E1   2.80596674E0  1.02587711E-2   6.1724832E-5    3
 -9.01626371E-8 3.59109635E-11   1.16584983E4   1.20622371E1                   4
C3H4(74)                C   3H   4          G     100.0    5000.0  969.98      1
    5.8005388E0  1.13536024E-2 -4.03491818E-6 7.19065448E-10-5.02186423E-14    2
   1.97499659E4  -7.36961408E0   3.30523663E0  1.09264397E-2  1.31989593E-5    3
 -2.25164841E-8 8.87423351E-12   2.07382228E4   7.19161906E0                   4
C3H5(75)                C   3H   5          G     100.0    5000.0 1030.45      1
   5.02497574E0  1.54865835E-2 -6.07289003E-6  1.11597342E-9-7.79099152E-14    2
   2.79427502E4 -9.11506772E-1   3.26239517E0  1.20170913E-2  1.39877053E-5    3
 -2.15736134E-8 7.78288692E-12   2.88534511E4   1.03011614E1                   4
allyl(76)               C   3H   5          G     100.0    5000.0  942.19      1
   8.06878965E0  1.01833813E-2 -2.84778394E-6 5.00841208E-10-3.79595947E-14    2
   1.69146178E4  -1.95280532E1   3.29609624E0  5.79284528E-3  4.33897874E-5    3
 -5.99859098E-8 2.33800755E-11   1.89082168E4   9.02011836E0                   4
C4H8(77)                C   4H   8          G     100.0    5000.0 1157.78      1
   6.04215522E0  2.60073988E-2 -1.04844281E-5  1.90883001E-9 -1.3060219E-13    2
  -4.86271905E3  -7.52657134E0   2.51999658E0  2.76811313E-2  9.44262292E-7    3
 -1.25014708E-8 4.67165954E-12  -3.34374826E3    1.3019514E1                   4
C5H9(79)                C   5H   9          G     100.0    5000.0 1100.04      1
   8.32453788E0  2.92565084E-2 -1.18105436E-5  2.17376612E-9-1.50621849E-13    2
   1.61365772E4  -1.44348472E1   1.97546086E0  3.72872221E-2 -2.23098629E-6    3
  -1.6073849E-8 6.82404065E-12   1.84443805E4   2.09416953E1                   4
C5H8(83)                C   5H   8          G     100.0    5000.0  972.32      1
   1.12869582E1   2.1241536E-2  -7.5035631E-6  1.36179019E-9-9.72223463E-14    2
   3.98422887E3  -3.40141545E1   2.00726051E0  3.28460791E-2  1.55848989E-5    3
 -4.25737038E-8  1.8425571E-11   7.04482003E3   1.69534226E1                   4
C3H3(85)                C   3H   3          G     100.0    5000.0  946.06      1
   6.98216587E0  7.27205861E-3 -2.37770455E-6 3.99146928E-10-2.69326368E-14    2
   3.97338807E4  -1.19545621E1   3.09171693E0  1.73334206E-2 -8.20240019E-6    3
 -2.63316077E-9 2.66030041E-12   4.07558595E4   8.10966937E0                   4
C4H7(89)                C   4H   7          G     100.0    5000.0 1477.86      1
   7.04146189E0  2.22763489E-2 -9.06096899E-6  1.61288671E-9-1.06958017E-13    2
   2.31355261E4  -1.08449089E1    2.6102373E0  2.78344315E-2  -8.1703642E-6    3
 -1.73544951E-9 9.57912489E-13   2.51480558E4   1.46417105E1                   4
C5H7(95)                C   5H   7          G     100.0    5000.0 1007.44      1
   1.01968894E1  2.05754121E-2 -7.68652994E-6  1.38862608E-9-9.67234348E-14    2
   3.31932573E4   -2.6151053E1   1.96300344E0  3.75744638E-2 -9.63058715E-6    3
 -1.27874492E-8 7.25823704E-12   3.56486633E4   1.75862113E1                   4
allene(98)              C   3H   4          G     100.0    5000.0  949.71      1
    6.7995965E0  9.59972675E-3 -3.02064679E-6 5.37818672E-10-3.92598763E-14    2
   1.97722567E4  -1.27584333E1   3.37446019E0  7.04633022E-3  2.78301282E-5    3
 -3.99438003E-8 1.55726113E-11   2.11885612E4   7.62051577E0                   4
C5H8(105)               C   5H   8          G     100.0    5000.0  967.48      1
    1.2017596E1  2.03483524E-2 -7.02495368E-6  1.25892843E-9-8.94203058E-14    2
   3.69935254E3  -3.85851294E1   1.83928869E0  3.69282411E-2  6.80794279E-6    3
  -3.5518203E-8 1.64541889E-11   6.86231877E3   1.63509391E1                   4
C4H7(111)               C   4H   7          G     100.0    5000.0 1187.41      1
   6.79982936E0  2.18732797E-2 -8.63239528E-6   1.5612841E-9-1.06428958E-13    2
   2.51047832E4  -8.47191432E0   2.51427018E0  2.83173204E-2 -6.67609573E-6    3
 -5.20588506E-9 2.51187674E-12   2.66859804E4   1.53122048E1                   4
C4H9(126)               C   4H   9          G     100.0    5000.0 1083.85      1
   6.12697741E0  2.82086471E-2 -1.13016986E-5  2.07331318E-9-1.43451097E-13    2
   4.72410503E3  -4.53088477E0   2.48182442E0  2.70986178E-2  1.03887029E-5    3
 -2.36649958E-8 8.65276606E-12   6.36961853E3   1.72942941E1                   4
C5H9(132)               C   5H   9          G     100.0    5000.0   956.9      1
   9.88818708E0  2.52392481E-2 -8.60358764E-6  1.49488747E-9-1.03138151E-13    2
   1.63406166E4  -2.23713158E1   1.99036564E0  3.44736383E-2  1.41969034E-5    3
 -4.03597886E-8 1.76166178E-11     1.894082E4   2.10719091E1                   4
C5H7(162)               C   5H   7          G     100.0    5000.0 1001.65      1
   1.00558049E1  2.08754303E-2 -7.95405091E-6  1.47293811E-9-1.04736889E-13    2
   3.78432469E4  -2.34780597E1   2.15387132E0  3.16793908E-2  6.94300559E-6    3
  -2.9125491E-8 1.26946088E-11   4.04672529E4   1.98537151E1                   4
C4H6(182)               C   4H   6          G     100.0    5000.0 1025.61      1
   6.82083697E0  1.92337223E-2 -7.45616195E-6  1.36534759E-9-9.53184253E-14    2
   1.60280061E4  -1.04336059E1   2.74634063E0  2.18190539E-2  8.22301667E-6    3
  -2.1476153E-8 8.55595958E-12   1.75635646E4   1.27381121E1                   4
C4H6(183)               C   4H   6          G     100.0    5000.0  984.54      1
   7.91433112E0  1.72435816E-2 -6.28666468E-6  1.12952275E-9-7.88845388E-14    2
   1.65471139E4  -1.64598307E1   2.63757979E0  2.35737527E-2  7.08709713E-6    3
 -2.35125984E-8 1.01361132E-11   1.83183901E4   1.26339153E1                   4
C5H5(185)               C   5H   5          G     100.0    5000.0 1020.59      1
   9.61238473E0  1.62441035E-2 -6.07929063E-6  1.08940705E-9-7.51981408E-14    2
   5.87667368E4  -2.17848208E1   2.17298409E0  3.48443937E-2 -1.79010209E-5    3
 -1.32354141E-9 2.99850299E-12   6.08350664E4   1.69512045E1                   4
C5H6(194)               C   5H   6          G     100.0    5000.0  957.44      1
    1.2347486E1  1.46242481E-2 -4.72091121E-6 8.44144789E-10-6.13744905E-14    2
   2.51543629E4  -3.94166776E1   2.06128932E0  3.23127001E-2  7.18120366E-6    3
 -3.50269564E-8 1.65075379E-11   2.82829779E4   1.58131711E1                   4
CC#CC(221)              C   4H   6          G     100.0    5000.0  875.92      1
   6.09722589E0  1.81506158E-2 -5.14957533E-6 7.68953342E-10-4.81569735E-14    2
   1.45730814E4  -6.58060937E0   2.92098358E0  1.86667394E-2   1.7921722E-5    3
 -3.50230111E-8 1.53711115E-11   1.56661379E4   1.13853616E1                   4
C4H7(222)               C   4H   7          G     100.0    5000.0  995.01      1
   7.60267025E0  2.07982702E-2 -7.87783087E-6   1.4501471E-9-1.02663929E-13    2
   1.27544117E4  -1.45506942E1    2.6851549E0  2.07743488E-2  2.19962159E-5    3
 -3.85576131E-8 1.49724888E-11   1.47127817E4   1.40723284E1                   4
C4H4(285)               C   4H   4          G     100.0    5000.0  955.24      1
   8.52644289E0  1.08962971E-2 -3.56573015E-6 6.31263733E-10-4.51907829E-14    2
   3.11962732E4   -1.9643041E1   2.87085772E0  1.82039429E-2    1.067218E-5    3
 -2.72506849E-8 1.19484444E-11    3.3023844E4   1.12933491E1                   4
C4H5(286)               C   4H   5          G     100.0    5000.0  966.65      1
   8.97804218E0  1.35587905E-2 -4.70094516E-6 8.47377802E-10-6.05080373E-14    2
   3.44927511E4  -2.14570124E1   2.67738268E0  2.17330323E-2  1.03879533E-5    3
 -2.87133964E-8 1.25385118E-11   3.65470525E4   1.30515531E1                   4
C5H5(374)               C   5H   5          G     100.0    5000.0  965.71      1
   9.88966397E0  1.59728935E-2 -5.54725686E-6 9.77568812E-10-6.81567096E-14    2
   4.06438017E4  -2.59826749E1   2.28411368E0  3.06598264E-2  -2.2410318E-6    3
 -1.93357208E-8 9.85826599E-12   4.28968548E4   1.45040571E1                   4
C5H5(376)               C   5H   5          G     100.0    5000.0  952.66      1
   1.11869186E1  1.28538578E-2 -3.79077167E-6 7.28245186E-10-5.85261722E-14    2
   4.39233938E4   -3.5608736E1   2.96708878E0  6.72429551E-3  6.98541837E-5    3
 -9.55907234E-8 3.69698166E-11   4.73338179E4   1.33282171E1                   4
C4H6(582)               C   4H   6          G     100.0    5000.0 2271.44      1
   1.33029325E1  1.41302624E-2 -5.59038678E-6 9.21081898E-10-5.59660504E-14    2
    4.3906322E4  -3.81518389E1   2.68371578E0  2.99287595E-2  -1.4106959E-5    3
  2.85824719E-9-2.07271146E-13   4.94791198E4   2.34397817E1                   4
C5H9(585)               C   5H   9          G     100.0    5000.0  999.84      1
   1.02289432E1  2.64698774E-2 -1.01084216E-5  1.86962629E-9-1.32725473E-13    2
   9.04332423E3  -2.68361034E1   1.97337812E0  3.36990596E-2  1.77494404E-5    3
 -4.25113856E-8 1.74168074E-11   1.19836907E4   1.94394942E1                   4
C4H5(712)               C   4H   5          G     100.0    5000.0 1027.31      1
    7.5853824E0   1.5400375E-2 -5.83860634E-6  1.05310794E-9-7.28220649E-14    2
   3.52909324E4  -1.24582256E1   2.65420473E0  2.50418633E-2 -5.95926586E-6    3
 -7.92596439E-9 4.31641714E-12   3.68085073E4      1.39197E1                   4
C5H9(716)               C   5H   9          G     100.0    5000.0 1099.61      1
   9.29800708E0  2.85421064E-2 -1.13897922E-5  2.08167066E-9-1.43675527E-13    2
    7.5122844E3  -2.28685323E1   1.75919271E0  4.20042195E-2 -1.07087411E-5    3
 -9.87765678E-9 5.20041507E-12   1.00143127E4   1.80558021E1                   4
C4H8(787)               C   4H   8          G     100.0    5000.0 1802.41      1
   1.05022922E1  2.26355728E-2 -8.93641622E-6  1.52850207E-9-9.75173331E-14    2
   3.05116697E4  -2.16443891E1   2.23551647E0  3.62127744E-2 -1.62668754E-5    3
  2.77190809E-9-6.63714762E-14   3.42663128E4   2.52570353E1                   4
C5H9(895)               C   5H   9          G     100.0    5000.0 2151.22      1
   9.42029008E0  2.88822684E-2 -1.20107578E-5  2.12507548E-9-1.38905903E-13    2
   1.73339168E4  -2.33864677E1   2.37942226E0  4.19741238E-2 -2.11394272E-5    3
  4.95406436E-9-4.67671427E-13    2.0363209E4   1.59752041E1                   4
C5H9(969)               C   5H   9          G     100.0    5000.0  1036.8      1
   8.27531235E0  2.95473189E-2 -1.18304554E-5  2.20299928E-9-1.55162483E-13    2
   8.27254117E3  -1.87501552E1   2.16130163E0  3.10718496E-2  1.78844562E-5    3
 -3.74288539E-8 1.43502628E-11   1.07262034E4   1.66862186E1                   4
C5H7(1075)              C   5H   7          G     100.0    5000.0  886.39      1
    9.0335675E0  2.09578973E-2 -6.43697519E-6  1.00641908E-9-6.41224979E-14    2
   3.10090649E4  -1.89172452E1   2.01893588E0  3.89034315E-2 -1.36057066E-5    3
 -1.10507797E-8  8.2578794E-12   3.27911641E4   1.71162867E1                   4
C5H7(1126)              C   5H   7          G     100.0    5000.0  958.31      1
   1.06734942E1  1.91100124E-2 -6.23062894E-6  1.21288087E-9-9.52651964E-14    2
   1.41531553E4  -3.66353249E1   3.16098811E0 -2.07796254E-3  1.09181548E-4    3
 -1.36293455E-7 5.07036753E-11   1.80057636E4   1.18768702E1                   4
C5H7(1127)              C   5H   7          G     100.0    5000.0  978.47      1
   8.02976549E0  2.33335586E-2 -8.79333793E-6  1.69632484E-9-1.26226317E-13    2
   2.23243405E4  -1.77919746E1   3.12892644E0  3.70912899E-3  8.20882789E-5    3
 -1.01647641E-7 3.68618128E-11    2.5181908E4   1.54464246E1                   4
C4H3(1177)              C   4H   3          G     100.0    5000.0  841.04      1
   6.74047337E0  1.26892353E-2  -5.4304593E-6 9.96209766E-10-6.78096046E-14    2
   5.71523098E4  -6.79880087E0   2.59157835E0  3.24211246E-2 -4.06218284E-5    3
   2.8890874E-8-8.35939121E-12   5.78501986E4   1.24990469E1                   4
C4H3(1178)              C   4H   3          G     100.0    5000.0  950.07      1
   8.93987887E0  7.98645559E-3 -2.52103798E-6   4.309233E-10-3.01731253E-14    2
    6.2080386E4  -2.03633287E1   2.75145807E0  2.28457258E-2 -8.30570344E-6    3
 -7.91305212E-9  5.4291964E-12   6.37615331E4   1.18343329E1                   4
C5H7(1184)              C   5H   7          G     100.0    5000.0  973.45      1
   9.77410913E0  2.12808685E-2 -7.49399691E-6  1.29735181E-9-8.80414336E-14    2
   2.87822633E4  -2.42371506E1   1.92116423E0  3.94906264E-2 -1.38901744E-5    3
 -9.15853258E-9 6.40748843E-12   3.09772554E4    1.6858816E1                   4
C5H7(1887)              C   5H   7          G     100.0    5000.0  973.45      1
   9.77410913E0  2.12808685E-2 -7.49399691E-6  1.29735181E-9-8.80414336E-14    2
   2.87822633E4  -2.42371506E1   1.92116423E0  3.94906264E-2 -1.38901744E-5    3
 -9.15853258E-9 6.40748843E-12   3.09772554E4    1.6858816E1                   4
C5H6(2013)              C   5H   6          G     100.0    5000.0 1685.93      1
   1.01735715E1  1.95474977E-2 -7.87892823E-6  1.40176449E-9-9.31968784E-14    2
    3.1895848E4  -2.74845224E1   2.08414625E0  3.87402306E-2 -2.49549712E-5    3
  8.15411756E-9-1.09447405E-12   3.46234971E4   1.57675494E1                   4
C5H7(2014)              C   5H   7          G     100.0    5000.0  942.04      1
   1.19104127E1  1.73608529E-2 -5.09278891E-6 8.77941604E-10-6.40343297E-14    2
   1.78997686E4  -3.71192067E1   2.29875717E0  2.38028436E-2  3.93765683E-5    3
  -6.9321455E-8 2.88435361E-11   2.12357578E4   1.67721088E1                   4
C5H6(2393)              C   5H   6          G     100.0    5000.0  947.71      1
   1.00735964E1  1.74725205E-2 -5.60020179E-6 9.72590789E-10-6.88503186E-14    2
   2.49690187E4  -2.65011189E1   2.42536184E0  2.45340452E-2  2.31393225E-5    3
 -4.73232745E-8 2.00783656E-11   2.75512267E4   1.59615994E1                   4
C5H6(2736)              C   5H   6          G     100.0    5000.0  948.16      1
   1.23878527E1  1.33346684E-2 -3.50224478E-6 6.76698275E-10-5.69893897E-14    2
    1.0691306E4  -4.47911028E1   2.99624679E0   2.1673897E-3  9.45104269E-5    3
 -1.24729626E-7 4.79037619E-11    1.4755197E4   1.20567824E1                   4
C5H5(2823)              C   5H   5          G     100.0    5000.0 1071.05      1
   7.36862388E0  1.95182648E-2 -7.32845251E-6  1.29024055E-9-8.70718226E-14    2
   2.94180017E4  -1.81999208E1   2.41060797E0   3.0788477E-2 -1.29640766E-5    3
 -1.51854916E-9 2.04293391E-12   3.08956886E4   8.00024037E0                   4
C5H5(2824)              C   5H   5          G     100.0    5000.0  952.66      1
   1.11869186E1  1.28538578E-2 -3.79077167E-6 7.28245186E-10-5.85261722E-14    2
   4.35711405E4   -3.5608736E1   2.96708878E0  6.72429551E-3  6.98541837E-5    3
 -9.55907234E-8 3.69698166E-11   4.69815646E4   1.33282171E1                   4
C5H6(2826)              C   5H   6          G     100.0    5000.0  961.06      1
   8.07585216E0  2.18444358E-2 -7.59138274E-6  1.41593797E-9-1.04792452E-13    2
   5.17017738E4  -8.35467034E0   3.17238115E0  2.71361005E-3    8.397997E-5    3
 -1.04913852E-7 3.86905589E-11    5.4470276E4   2.46069079E1                   4
C6H8(3429)              C   6H   8          G     100.0    5000.0  970.98      1
   1.24034631E1  2.37252516E-2 -8.45417182E-6  1.58543457E-9-1.16814818E-13    2
   6.86280225E3  -4.42513484E1   2.06708015E0  2.64829523E-2  4.88063464E-5    3
 -7.99687895E-8 3.17566283E-11   1.07473705E4   1.49782841E1                   4
C7H7(3430)              C   7H   7          G     100.0    5000.0  977.13      1
   1.36146766E1  2.30480144E-2 -8.35741253E-6  1.56118301E-9-1.13953417E-13    2
   4.96790016E4  -4.58508737E1   1.66002057E0  3.70664188E-2  2.37280895E-5    3
 -5.69031923E-8 2.42016158E-11   5.36822706E4   2.00770448E1                   4
C6H8(3542)              C   6H   8          G     100.0    5000.0  962.94      1
   1.33072213E1  2.19371854E-2 -7.42931036E-6  1.40177024E-9-1.05673044E-13    2
   5.79971151E3  -4.79616357E1    2.1595005E0  2.20887427E-2  6.42319474E-5    3
 -9.79870581E-8 3.86206672E-11   1.00865308E4   1.65099542E1                   4
C7H7(3543)              C   7H   7          G     100.0    5000.0  942.83      1
   1.92548365E1  1.35295886E-2  -2.9608296E-6 5.29345535E-10-4.56030926E-14    2
   4.47797721E4  -7.76157011E1   1.45598443E0   3.4288288E-2  5.11244039E-5    3
 -9.93099706E-8 4.27606011E-11   5.05696213E4   2.01114898E1                   4
C6H7(3755)              C   6H   7          G     100.0    5000.0  947.38      1
   1.21465669E1  2.04314305E-2 -6.37403224E-6  1.11471852E-9-8.03453111E-14    2
    3.1943758E4  -3.95350276E1   2.09219257E0  2.80849855E-2  3.66039119E-5    3
 -6.78995192E-8 2.83626351E-11   3.54104135E4   1.66696812E1                   4
C5H4(3877)              C   5H   4          G     100.0    5000.0  986.62      1
    1.1436553E1  1.19041631E-2 -4.38629856E-6  8.2051333E-10-5.97191099E-14    2
   4.68702968E4  -3.45087803E1   2.20025659E0  3.19891935E-2 -8.52761445E-6    3
 -1.42162437E-8 8.26966267E-12   4.95378296E4   1.42088292E1                   4
C5H5(3879)              C   5H   5          G     100.0    5000.0   986.3      1
   1.04186219E1  1.56344793E-2 -5.91869748E-6  1.12527382E-9-8.25359501E-14    2
   4.36424526E4  -2.72194953E1   2.44663631E0  2.43961046E-2  1.66015617E-5    3
 -3.83257435E-8 1.60586454E-11   4.63613907E4   1.69423193E1                   4
C6H7(4060)              C   6H   7          G     100.0    5000.0  963.15      1
    1.1173502E1   2.2705061E-2 -7.83567697E-6  1.44547646E-9-1.05969413E-13    2
   2.31334177E4  -3.92474894E1    2.3472159E0   2.1056629E-2  5.43858324E-5    3
 -8.29132949E-8 3.25081363E-11   2.66103078E4   1.22260958E1                   4
C6H7(4199)              C   6H   7          G     100.0    5000.0  945.84      1
    1.3961729E1  1.80034974E-2 -4.98788377E-6 9.10666089E-10-7.18822942E-14    2
   1.97022625E4  -5.05482381E1   2.44363793E0  1.31342223E-2  8.77058055E-5    3
 -1.24314887E-7  4.8857283E-11   2.42777834E4   1.70480416E1                   4
C6H8(4203)              C   6H   8          G     100.0    5000.0  962.95      1
   1.33074452E1  2.19368004E-2 -7.42908653E-6  1.40171706E-9-1.05668614E-13    2
   5.97574545E3  -4.81188911E1   2.15943657E0  2.20895218E-2  6.42291111E-5    3
 -9.79832326E-8 3.86189748E-11   1.02626602E4   1.63541839E1                   4
C6H7(4471)              C   6H   7          G     100.0    5000.0  950.38      1
   1.54889095E1  1.60710476E-2 -4.52090016E-6 8.54123226E-10  -6.895523E-14    2
    2.3576433E4  -5.94921854E1   2.16644111E0  1.95045279E-2  7.31413107E-5    3
 -1.11903841E-7 4.49231809E-11   2.84859124E4   1.66096263E1                   4