ELEMENTS
e C H
END

SPECIES
e C CH CH^+ CH2 CH2^+ CH3 CH3^+ CH4 CH4(v13) CH4(v24) CH4^+ C2H2 C2H2(v13) C2H2(v2) C2H2(v5) C2H2^+ C2H3 C2H3^+ C2H4 C2H4(v1) C2H4(v2) C2H4^+ C2H5 C2H5^+
C2H6 C2H6(v13) C2H6(v24) C2H6^+ C3H5 C3H6 C3H6(v) C3H6^+ C3H7 C3H7^+ C3H8 C3H8(v1) C3H8(v2) C3H8^+ C4H9 C4H9H C2H C5H12 H H2 H2^+ H3^+ H^+
END

BOLSIG
CH CH2 CH3 CH4 CH4(v13) CH4(v24) C2H2 C2H2(v13) C2H2(v2) C2H2(v5) C2H3 C2H4 C2H4(v1) C2H4(v2) C2H5 C2H6 C2H6(v13) C2H6(v24) C3H6 C3H6(v) C3H7 C3H8 C3H8(v1) C3H8(v2)
END

REACTIONS
# Gas Constant
$ double precision, parameter :: R = 8.314d-3

# Compensation Parameters
$ double precision, parameter :: f0 = 1.2845d-2
$ double precision, parameter :: f1 = 5.8240d-3
$ double precision, parameter :: f2 = 6.0923d-7
$ double precision, parameter :: f3 = 2.2018d0
$ double precision, parameter :: f4 = 7.1494d-5
$ double precision, parameter :: f5 = 6.0914d-4
$ double precision, parameter :: f6 = 7.7529d-5
$ double precision, parameter :: f7 = 2.2736d-8
$ double precision, parameter :: f8 = 4.2459d-6
$ double precision, parameter :: f9 = 2.0034d-4
$ double precision, parameter :: f10 = 3.4516d-2
$ double precision, parameter :: f11 = 1.1296d+2
$ double precision, parameter :: f12 = 1.3507d-7
$ double precision, parameter :: f13 = 3.7268d-3
$ double precision, parameter :: f14 = 5.9590d-2
$ double precision, parameter :: f15 = 9.8518d-7
$ double precision, parameter :: f16 = 1.7155d0
$ double precision, parameter :: f17 = 8.5841d-1
$ double precision, parameter :: f18 = 1.1700d-3
$ double precision, parameter :: f19 = 2.2614d-2
$ double precision, parameter :: f20 = 1.2913d-2
$ double precision, parameter :: f21 = 1.1966d-1
$ double precision, parameter :: f22 = 3.7022d+1
$ double precision, parameter :: f23 = 2.2218d0
$ double precision, parameter :: f24 = 1.3294d+2
$ double precision, parameter :: f25 = 1.9195d+2
$ double precision, parameter :: f26 = 2.5676d-8
$ double precision, parameter :: f27 = 1.0261d-6
$ double precision, parameter :: f28 = 2.4707d-7
$ double precision, parameter :: f29 = 1.2237d-3
$ double precision, parameter :: f30 = 2.1137d+1
$ double precision, parameter :: f31 = 5.5903d-3
$ double precision, parameter :: f32 = 3.4775d-6
$ double precision, parameter :: f33 = 3.6869d-4
$ double precision, parameter :: f34 = 7.3422d-1
$ double precision, parameter :: f35 = 8.0612d-2
$ double precision, parameter :: f36 = 5.9792d+2
$ double precision, parameter :: f37 = 7.1394d-1
$ double precision, parameter :: f38 = 1.9472d-2
$ double precision, parameter :: f39 = 7.2889d-1
$ double precision, parameter :: f40 = 9.4722d-2
$ double precision, parameter :: f41 = 5.1819d-2
$ double precision, parameter :: f42 = 6.0281d-3
$ double precision, parameter :: f43 = 7.3693d-8
$ double precision, parameter :: f44 = 9.2534d-7
$ double precision, parameter :: f45 = 3.1279d-1
$ double precision, parameter :: f46 = 1.2270d+2
$ double precision, parameter :: f47 = 6.0877d-7
$ double precision, parameter :: f48 = 4.6256d-3
$ double precision, parameter :: f49 = 2.3229d-6
$ double precision, parameter :: f50 = 1.0647d-6
$ double precision, parameter :: f51 = 9.8040d-6
$ double precision, parameter :: f52 = 2.2259d+1
$ double precision, parameter :: f53 = 1.5035d+2
$ double precision, parameter :: f54 = 2.4545d-4
$ double precision, parameter :: f55 = 4.1601d-3
$ double precision, parameter :: f56 = 5.7620d0
$ double precision, parameter :: f57 = 3.3153d-2
$ double precision, parameter :: f58 = 5.0235d-8
$ double precision, parameter :: f59 = 2.2975d-4
$ double precision, parameter :: f60 = 2.9947d0
$ double precision, parameter :: f61 = 4.7703d+1
$ double precision, parameter :: f62 = 2.4834d+2
$ double precision, parameter :: f63 = 7.3238d-2
$ double precision, parameter :: f64 = 9.9818d-4
$ double precision, parameter :: f65 = 5.5658d-3
$ double precision, parameter :: f66 = 4.7864d-8
$ double precision, parameter :: f67 = 1.1076d-6
$ double precision, parameter :: f68 = 2.5504d-5
$ double precision, parameter :: f69 = 1.0296d+2
$ double precision, parameter :: f70 = 1.0101d-1
$ double precision, parameter :: f71 = 5.8179d-6
$ double precision, parameter :: f72 = 8.4619d-2
$ double precision, parameter :: f73 = 2.5005d-6
$ double precision, parameter :: f74 = 3.6796d-7
$ double precision, parameter :: f75 = 7.5301d-5
$ double precision, parameter :: f76 = 4.0007d-1
$ double precision, parameter :: f77 = 1.2125d+2
$ double precision, parameter :: f78 = 1.3968d-5
$ double precision, parameter :: f79 = 3.7564d-4
$ double precision, parameter :: f80 = 1.9697d+2
$ double precision, parameter :: f81 = 6.4821d-5
$ double precision, parameter :: f82 = 3.1955d-5
$ double precision, parameter :: f83 = 1.4153d-5
$ double precision, parameter :: f84 = 4.6925d-2
$ double precision, parameter :: f85 = 9.1631d-7
$ double precision, parameter :: f86 = 5.8353d-1
$ double precision, parameter :: f87 = 2.8932d-2
$ double precision, parameter :: f88 = 7.6589d-7
$ double precision, parameter :: f89 = 2.4883d-4
$ double precision, parameter :: f90 = 7.5215d+1
$ double precision, parameter :: f91 = 8.5227d-1
$ double precision, parameter :: f92 = 2.9916d-8
$ double precision, parameter :: f93 = 2.4786d-1
$ double precision, parameter :: f94 = 1.5916d-5
$ double precision, parameter :: f95 = 6.8930d+1
$ double precision, parameter :: f96 = 1.9191d-8
$ double precision, parameter :: f97 = 8.2444d-3
$ double precision, parameter :: f98 = 7.7145d+2
$ double precision, parameter :: f99 = 8.0947d-3
$ double precision, parameter :: f100 = 4.3259d+2
$ double precision, parameter :: f101 = 2.6480d-6
$ double precision, parameter :: f102 = 9.0478d-5
$ double precision, parameter :: f103 = 6.5781d-4
$ double precision, parameter :: f104 = 1.0255d-6
$ double precision, parameter :: f105 = 4.3739d-7
$ double precision, parameter :: f106 = 6.7240d-2
$ double precision, parameter :: f107 = 1.3445d+1
$ double precision, parameter :: f108 = 1.4214d-7
$ double precision, parameter :: f109 = 2.7628d-4
$ double precision, parameter :: f110 = 7.1128d+2
$ double precision, parameter :: f111 = 1.6601d+1
$ double precision, parameter :: f112 = 1.2844d-4
$ double precision, parameter :: f113 = 3.6655d-1
$ double precision, parameter :: f114 = 4.8670d-4
$ double precision, parameter :: f115 = 1.4621d+1
$ double precision, parameter :: f116 = 2.0634d-1
$ double precision, parameter :: f117 = 1.5821d-7
$ double precision, parameter :: f118 = 5.9508d+2
$ double precision, parameter :: f119 = 9.3220d-1
$ double precision, parameter :: f120 = 3.4132d0
$ double precision, parameter :: f121 = 2.3796d0
$ double precision, parameter :: f122 = 5.7117d+2
$ double precision, parameter :: f123 = 1.4143d-3
$ double precision, parameter :: f124 = 9.6025d-1
$ double precision, parameter :: f125 = 1.9930d-7
$ double precision, parameter :: f126 = 1.3563d-4
$ double precision, parameter :: f127 = 4.5954d-3
$ double precision, parameter :: f128 = 1.6834d-6
$ double precision, parameter :: f129 = 9.5415d0
$ double precision, parameter :: f130 = 1.3661d+2
$ double precision, parameter :: f131 = 2.2389d-5
$ double precision, parameter :: f132 = 5.5647d-2
$ double precision, parameter :: f133 = 4.3793d0
$ double precision, parameter :: f134 = 2.7454d-1
$ double precision, parameter :: f135 = 1.1671d-8
$ double precision, parameter :: f136 = 1.2571d-4
$ double precision, parameter :: f137 = 4.0397d-1
$ double precision, parameter :: f138 = 1.4654d-3
$ double precision, parameter :: f139 = 2.2364d+2
$ double precision, parameter :: f140 = 4.9744d-2
$ double precision, parameter :: f141 = 3.6235d-6
$ double precision, parameter :: f142 = 1.0211d-8
$ double precision, parameter :: f143 = 9.5066d-2
$ double precision, parameter :: f144 = 8.4767d-5
$ double precision, parameter :: f145 = 4.4140d-6
$ double precision, parameter :: f146 = 1.6733d-5
$ double precision, parameter :: f147 = 1.9407d+1
$ double precision, parameter :: f148 = 5.3879d0
$ double precision, parameter :: f149 = 2.9180d-3
$ double precision, parameter :: f150 = 2.3363d-8
$ double precision, parameter :: f151 = 3.1964d-2
$ double precision, parameter :: f152 = 8.0813d-7
$ double precision, parameter :: f153 = 9.9137d-2
$ double precision, parameter :: f154 = 2.6675d-8
$ double precision, parameter :: f155 = 3.8768d-8
$ double precision, parameter :: f156 = 9.2970d-3
$ double precision, parameter :: f157 = 5.1128d-1
$ double precision, parameter :: f158 = 6.5215d-4
$ double precision, parameter :: f159 = 4.3791d-7
$ double precision, parameter :: f160 = 1.2776d-1
$ double precision, parameter :: f161 = 1.7155d-3
$ double precision, parameter :: f162 = 2.0476d-7
$ double precision, parameter :: f163 = 7.4952d0
$ double precision, parameter :: f164 = 4.3856d-4
$ double precision, parameter :: f165 = 2.4818d-8
$ double precision, parameter :: f166 = 9.5343d0
$ double precision, parameter :: f167 = 5.1179d-7
$ double precision, parameter :: f168 = 9.5313d-2
$ double precision, parameter :: f169 = 1.2786d+1
$ double precision, parameter :: f170 = 1.5509d+2
$ double precision, parameter :: f171 = 1.6070d-3
$ double precision, parameter :: f172 = 3.0878d-6
$ double precision, parameter :: f173 = 1.3589d-3
$ double precision, parameter :: f174 = 2.0810d-2
$ double precision, parameter :: f175 = 7.2912d-5
$ double precision, parameter :: f176 = 5.5935d-5
$ double precision, parameter :: f177 = 2.9944d-6
$ double precision, parameter :: f178 = 1.3793d-7
$ double precision, parameter :: f179 = 3.2200d0
$ double precision, parameter :: f180 = 1.5428d-2
$ double precision, parameter :: f181 = 5.1424d0
$ double precision, parameter :: f182 = 2.6710d+2
$ double precision, parameter :: f183 = 2.1787d-3
$ double precision, parameter :: f184 = 1.7430d-2
$ double precision, parameter :: f185 = 4.7838d-6
$ double precision, parameter :: f186 = 5.3069d-3
$ double precision, parameter :: f187 = 1.9911d-2
$ double precision, parameter :: f188 = 4.5664d-7
$ double precision, parameter :: f189 = 1.0935d+1
$ double precision, parameter :: f190 = 4.7636d0
$ double precision, parameter :: f191 = 2.1529d+1
$ double precision, parameter :: f192 = 1.6628d-4
$ double precision, parameter :: f193 = 1.0604d-5
$ double precision, parameter :: f194 = 1.4745d+2
$ double precision, parameter :: f195 = 1.0549d-5
$ double precision, parameter :: f196 = 1.4473d-5
$ double precision, parameter :: f197 = 2.4084d0
$ double precision, parameter :: f198 = 9.2642d+1
$ double precision, parameter :: f199 = 9.4122d-4
$ double precision, parameter :: f200 = 1.5468d-8
$ double precision, parameter :: f201 = 1.1136d0
$ double precision, parameter :: f202 = 1.4369d-5
$ double precision, parameter :: f203 = 8.3361d-1
$ double precision, parameter :: f204 = 1.5151d0
$ double precision, parameter :: f205 = 4.5593d-7
$ double precision, parameter :: f206 = 1.3949d+1
$ double precision, parameter :: f207 = 3.8943d0
$ double precision, parameter :: f208 = 3.9459d-6
$ double precision, parameter :: f209 = 3.7616d-5
$ double precision, parameter :: f210 = 3.1310d-4
$ double precision, parameter :: f211 = 1.6458d-4
$ double precision, parameter :: f212 = 9.5656d-8
$ double precision, parameter :: f213 = 4.4099d-2
$ double precision, parameter :: f214 = 1.5098d0
$ double precision, parameter :: f215 = 3.0142d-5
$ double precision, parameter :: f216 = 1.3300d+2
$ double precision, parameter :: f217 = 4.8115d0
$ double precision, parameter :: f218 = 7.4914d-1
$ double precision, parameter :: f219 = 3.5688d-7
$ double precision, parameter :: f220 = 2.3817d0
$ double precision, parameter :: f221 = 1.1913d-2
$ double precision, parameter :: f222 = 7.3210d-8
$ double precision, parameter :: f223 = 6.1133d-3
$ double precision, parameter :: f224 = 2.5174d-2
$ double precision, parameter :: f225 = 6.7773d-8
$ double precision, parameter :: f226 = 4.8200d0
$ double precision, parameter :: f227 = 4.1931d-5
$ double precision, parameter :: f228 = 1.9406d-2
$ double precision, parameter :: f229 = 2.1756d-7
$ double precision, parameter :: f230 = 1.3743d-8
$ double precision, parameter :: f231 = 6.4166d+1
$ double precision, parameter :: f232 = 2.2326d-6
$ double precision, parameter :: f233 = 3.9413d+1
$ double precision, parameter :: f234 = 5.5686d-1
$ double precision, parameter :: f235 = 2.3470d+1
$ double precision, parameter :: f236 = 1.4038d-4
$ double precision, parameter :: f237 = 2.9739d+1
$ double precision, parameter :: f238 = 3.7997d-6
$ double precision, parameter :: f239 = 1.8229d-2
$ double precision, parameter :: f240 = 4.8732d-3
$ double precision, parameter :: f241 = 9.9667d-2
$ double precision, parameter :: f242 = 1.1548d-3
$ double precision, parameter :: f243 = 2.3003d-2
$ double precision, parameter :: f244 = 1.9879d-5
$ double precision, parameter :: f245 = 4.6036d-4
$ double precision, parameter :: f246 = 1.3192d-4
$ double precision, parameter :: f247 = 5.0427d0
$ double precision, parameter :: f248 = 1.0388d-2
$ double precision, parameter :: f249 = 6.8962d-8
$ double precision, parameter :: f250 = 3.7847d-1
$ double precision, parameter :: f251 = 6.0884d-8
$ double precision, parameter :: f252 = 2.3400d-1
$ double precision, parameter :: f253 = 8.9791d-8
$ double precision, parameter :: f254 = 7.4647d-4
$ double precision, parameter :: f255 = 1.5364d-5
$ double precision, parameter :: f256 = 2.1711d-2
$ double precision, parameter :: f257 = 4.3854d-7
$ double precision, parameter :: f258 = 3.6754d0
$ double precision, parameter :: f259 = 9.0959d0
$ double precision, parameter :: f260 = 2.5921d+2
$ double precision, parameter :: f261 = 8.0051d-4
$ double precision, parameter :: f262 = 2.1632d-7
$ double precision, parameter :: f263 = 1.0294d+1
$ double precision, parameter :: f264 = 3.2896d-8
$ double precision, parameter :: f265 = 7.6794d-2
$ double precision, parameter :: f266 = 1.1942d-7
$ double precision, parameter :: f267 = 6.6457d+1
$ double precision, parameter :: f268 = 1.5311d-3
$ double precision, parameter :: f269 = 6.1446d-5
$ double precision, parameter :: f270 = 4.7465d-3
$ double precision, parameter :: f271 = 8.2215d-1
$ double precision, parameter :: f272 = 2.6431d+1
$ double precision, parameter :: f273 = 5.8207d+2
$ double precision, parameter :: f274 = 5.7504d-7
$ double precision, parameter :: f275 = 3.1917d-5
$ double precision, parameter :: f276 = 1.4505d0
$ double precision, parameter :: f277 = 2.6260d-4
$ double precision, parameter :: f278 = 1.6182d-3
$ double precision, parameter :: f279 = 6.0907d-3
$ double precision, parameter :: f280 = 7.1747d-3
$ double precision, parameter :: f281 = 3.7301d-3
$ double precision, parameter :: f282 = 5.6186d-2
$ double precision, parameter :: f283 = 1.7481d-1
$ double precision, parameter :: f284 = 8.8449d0
$ double precision, parameter :: f285 = 3.5075d0
$ double precision, parameter :: f286 = 2.3557d+2
$ double precision, parameter :: f287 = 1.4980d-1
$ double precision, parameter :: f288 = 1.3103d0
$ double precision, parameter :: f289 = 7.2225d+1
$ double precision, parameter :: f290 = 7.4168d-6
$ double precision, parameter :: f291 = 1.0356d-6
$ double precision, parameter :: f292 = 1.3291d-1
$ double precision, parameter :: f293 = 6.0982d-8
$ double precision, parameter :: f294 = 8.2736d-5
$ double precision, parameter :: f295 = 3.1744d-2
$ double precision, parameter :: f296 = 6.6633d-3
$ double precision, parameter :: f297 = 3.3203d-5
$ double precision, parameter :: f298 = 4.6720d-5
$ double precision, parameter :: f299 = 9.2702d0
$ double precision, parameter :: f300 = 1.5957d-7
$ double precision, parameter :: f301 = 7.8148d-5
$ double precision, parameter :: f302 = 5.1278d-4
$ double precision, parameter :: f303 = 3.3537d-8
$ double precision, parameter :: f304 = 4.0727d-1
$ double precision, parameter :: f305 = 1.4211d-8
$ double precision, parameter :: f306 = 2.7375d-5
$ double precision, parameter :: f307 = 1.7003d+2
$ double precision, parameter :: f308 = 5.9079d-4
$ double precision, parameter :: f309 = 1.4697d-7
$ double precision, parameter :: f310 = 1.6773d-2
$ double precision, parameter :: f311 = 7.7050d-5
$ double precision, parameter :: f312 = 5.9092d-8
$ double precision, parameter :: f313 = 1.4578d-3
$ double precision, parameter :: f314 = 1.3198d-2
$ double precision, parameter :: f315 = 1.8652d-5

# Electron Collision Reaction
e + CH4 => e + CH4(v24)		! f0 * Bolsig+ CH4 -> CH4(v24)
e + CH4 => e + CH4(v13)		! f1 * Bolsig+ CH4 -> CH4(v13)
e + C2H6 => e + C2H6(v24)		! f2 * Bolsig+ C2H6 -> C2H6(v24)
e + C2H6 => e + C2H6(v13)		! f3 * Bolsig+ C2H6 -> C2H6(v13)
e + C2H4 => e + C2H4(v1)		! f4 * Bolsig+ C2H4 -> C2H4(v1)
e + C2H4 => e + C2H4(v2)		! f5 * Bolsig+ C2H4 -> C2H4(v2)
e + C2H2 => e + C2H2(v5)		! f6 * Bolsig+ C2H2 -> C2H2(v5)
e + C2H2 => e + C2H2(v2)		! f7 * Bolsig+ C2H2 -> C2H2(v2)
e + C2H2 => e + C2H2(v13)		! f8 * Bolsig+ C2H2 -> C2H2(v13)
e + C3H8 => e + C3H8(v1)		! f9 * Bolsig+ C3H8 -> C3H8(v1)
e + C3H8 => e + C3H8(v2)		! f10 * Bolsig+ C3H8 -> C3H8(v2)
e + C3H6 => e + C3H6(v)		! f11 * Bolsig+ C3H6 -> C3H6(v)
e + CH4 => e + CH3 + H		! f12 * Bolsig+ CH4 -> CH3 H
e + CH4(v24) => e + CH3 + H		! f12 * Bolsig+ CH4(v24) -> CH3 H
e + CH4(v13) => e + CH3 + H		! f12 * Bolsig+ CH4(v13) -> CH3 H
e + CH4 => e + CH2 + H2		! f13 * Bolsig+ CH4 -> CH2 H2
e + CH4(v24) => e + CH2 + H2		! f13 * Bolsig+ CH4(v24) -> CH2 H2
e + CH4(v13) => e + CH2 + H2		! f13 * Bolsig+ CH4(v13) -> CH2 H2
e + CH4 => e + CH + H2 + H		! f14 * Bolsig+ CH4 -> CH H2 H
e + CH4(v24) => e + CH + H2 + H		! f14 * Bolsig+ CH4(v24) -> CH H2 H
e + CH4(v13) => e + CH + H2 + H		! f14 * Bolsig+ CH4(v13) -> CH H2 H
e + CH4 => e + C + H2 + H2		! f15 * Bolsig+ CH4 -> C H2 H2
e + CH4(v24) => e + C + H2 + H2		! f15 * Bolsig+ CH4(v24) -> C H2 H2
e + CH4(v13) => e + C + H2 + H2		! f15 * Bolsig+ CH4(v13) -> C H2 H2
e + CH3 => e + CH2 + H		! f16 * Bolsig+ CH3 -> CH2 H
e + CH3 => e + CH + H2		! f17 * Bolsig+ CH3 -> CH H2
e + CH3 => e + C + H2 + H		! f18 * Bolsig+ CH3 -> C H2 H
e + CH2 => e + CH + H		! f19 * Bolsig+ CH2 -> CH H
e + CH2 => e + C + H2		! f20 * Bolsig+ CH2 -> C H2
e + CH2 => e + C + H + H		! f21 * Bolsig+ CH2 -> C H H
e + CH => e + C + H		! f22 * Bolsig+ CH -> C H
e + CH4 => e + e + CH4^+		! f23 * Bolsig+ CH4 -> CH4^+
e + CH4(v24) => e + e + CH4^+		! f23 * Bolsig+ CH4(v24) -> CH4^+
e + CH4(v13) => e + e + CH4^+		! f23 * Bolsig+ CH4(v13) -> CH4^+
e + CH4 => e + e + H + CH3^+		! f24 * Bolsig+ CH4 -> H CH3^+
e + CH4(v24) => e + e + H + CH3^+		! f24 * Bolsig+ CH4(v24) -> H CH3^+
e + CH4(v13) => e + e + H + CH3^+		! f24 * Bolsig+ CH4(v13) -> H CH3^+
e + CH4 => e + e + H2 + CH2^+		! f25 * Bolsig+ CH4 -> H2 CH2^+
e + CH4(v24) => e + e + H2 + CH2^+		! f25 * Bolsig+ CH4(v24) -> H2 CH2^+
e + CH4(v13) => e + e + H2 + CH2^+		! f25 * Bolsig+ CH4(v13) -> H2 CH2^+
e + CH4 => e + e + H2 + H + CH^+		! f26 * Bolsig+ CH4 -> H2 H CH^+
e + CH4(v24) => e + e + H2 + H + CH^+		! f26 * Bolsig+ CH4(v24) -> H2 H CH^+
e + CH4(v13) => e + e + H2 + H + CH^+		! f26 * Bolsig+ CH4(v13) -> H2 H CH^+
e + CH3 => e + e + CH3^+		! f27 * Bolsig+ CH3 -> CH3^+
e + CH3 => e + e + H + CH2^+		! f28 * Bolsig+ CH3 -> H CH2^+
e + CH3 => e + e + H2 + CH^+		! f29 * Bolsig+ CH3 -> H2 CH^+
e + CH2 => e + e + CH2^+		! f30 * Bolsig+ CH2 -> CH2^+
e + CH2 => e + e + H + CH^+		! f31 * Bolsig+ CH2 -> H CH^+
e + CH => e + e + CH^+		! f32 * Bolsig+ CH -> CH^+
e + C2H6 => e + C2H5 + H		! f33 * Bolsig+ C2H6 -> C2H5 H
e + C2H6(v24) => e + C2H5 + H		! f33 * Bolsig+ C2H6(v24) -> C2H5 H
e + C2H6(v13) => e + C2H5 + H		! f33 * Bolsig+ C2H6(v13) -> C2H5 H
e + C2H6 => e + C2H4 + H2		! f34 * Bolsig+ C2H6 -> C2H4 H2
e + C2H6(v24) => e + C2H4 + H2		! f34 * Bolsig+ C2H6(v24) -> C2H4 H2
e + C2H6(v13) => e + C2H4 + H2		! f34 * Bolsig+ C2H6(v13) -> C2H4 H2
e + C2H6 => e + C2H3 + H2 + H		! f35 * Bolsig+ C2H6 -> C2H3 H2 H
e + C2H6(v24) => e + C2H3 + H2 + H		! f35 * Bolsig+ C2H6(v24) -> C2H3 H2 H
e + C2H6(v13) => e + C2H3 + H2 + H		! f35 * Bolsig+ C2H6(v13) -> C2H3 H2 H
e + C2H6 => e + C2H2 + H2 + H2		! f36 * Bolsig+ C2H6 -> C2H2 H2 H2
e + C2H6(v24) => e + C2H2 + H2 + H2		! f36 * Bolsig+ C2H6(v24) -> C2H2 H2 H2
e + C2H6(v13) => e + C2H2 + H2 + H2		! f36 * Bolsig+ C2H6(v13) -> C2H2 H2 H2
e + C2H6 => e + CH4 + CH2		! f37 * Bolsig+ C2H6 -> CH4 CH2
e + C2H6(v24) => e + CH4 + CH2		! f37 * Bolsig+ C2H6(v24) -> CH4 CH2
e + C2H6(v13) => e + CH4 + CH2		! f37 * Bolsig+ C2H6(v13) -> CH4 CH2
e + C2H6 => e + CH3 + CH3		! f38 * Bolsig+ C2H6 -> CH3 CH3
e + C2H6(v24) => e + CH3 + CH3		! f38 * Bolsig+ C2H6(v24) -> CH3 CH3
e + C2H6(v13) => e + CH3 + CH3		! f38 * Bolsig+ C2H6(v13) -> CH3 CH3
e + C2H5 => e + C2H4 + H		! f39 * Bolsig+ C2H5 -> C2H4 H
e + C2H5 => e + C2H3 + H2		! f40 * Bolsig+ C2H5 -> C2H3 H2
e + C2H5 => e + C2H3 + H + H		! f41 * Bolsig+ C2H5 -> C2H3 H H
e + C2H5 => e + C2H2 + H2 + H		! f42 * Bolsig+ C2H5 -> C2H2 H2 H
e + C2H5 => e + CH4 + CH		! f43 * Bolsig+ C2H5 -> CH4 CH
e + C2H5 => e + CH3 + CH2		! f44 * Bolsig+ C2H5 -> CH3 CH2
e + C2H4 => e + C2H3 + H		! f45 * Bolsig+ C2H4 -> C2H3 H
e + C2H4(v1) => e + C2H3 + H		! f45 * Bolsig+ C2H4(v1) -> C2H3 H
e + C2H4(v2) => e + C2H3 + H		! f45 * Bolsig+ C2H4(v2) -> C2H3 H
e + C2H4 => e + C2H2 + H2		! f46 * Bolsig+ C2H4 -> C2H2 H2
e + C2H4(v1) => e + C2H2 + H2		! f46 * Bolsig+ C2H4(v1) -> C2H2 H2
e + C2H4(v2) => e + C2H2 + H2		! f46 * Bolsig+ C2H4(v2) -> C2H2 H2
e + C2H4 => e + C2H2 + H + H		! f47 * Bolsig+ C2H4 -> C2H2 H H
e + C2H4(v1) => e + C2H2 + H + H		! f47 * Bolsig+ C2H4(v1) -> C2H2 H H
e + C2H4(v2) => e + C2H2 + H + H		! f47 * Bolsig+ C2H4(v2) -> C2H2 H H
e + C2H4 => e + CH3 + CH		! f48 * Bolsig+ C2H4 -> CH3 CH
e + C2H4(v1) => e + CH3 + CH		! f48 * Bolsig+ C2H4(v1) -> CH3 CH
e + C2H4(v2) => e + CH3 + CH		! f48 * Bolsig+ C2H4(v2) -> CH3 CH
e + C2H4 => e + CH2 + CH2		! f49 * Bolsig+ C2H4 -> CH2 CH2
e + C2H4(v1) => e + CH2 + CH2		! f49 * Bolsig+ C2H4(v1) -> CH2 CH2
e + C2H4(v2) => e + CH2 + CH2		! f49 * Bolsig+ C2H4(v2) -> CH2 CH2
e + C2H3 => e + C2H2 + H		! f50 * Bolsig+ C2H3 -> C2H2 H
e + C2H3 => e + CH2 + CH		! f51 * Bolsig+ C2H3 -> CH2 CH
e + C2H2 => e + CH + CH		! f52 * Bolsig+ C2H2 -> CH CH
e + C2H2(v5) => e + CH + CH		! f52 * Bolsig+ C2H2(v5) -> CH CH
e + C2H2(v2) => e + CH + CH		! f52 * Bolsig+ C2H2(v2) -> CH CH
e + C2H2(v13) => e + CH + CH		! f52 * Bolsig+ C2H2(v13) -> CH CH
e + C2H6 => e + e + C2H6^+		! f53 * Bolsig+ C2H6 -> C2H6^+
e + C2H6(v24) => e + e + C2H6^+		! f53 * Bolsig+ C2H6(v24) -> C2H6^+
e + C2H6(v13) => e + e + C2H6^+		! f53 * Bolsig+ C2H6(v13) -> C2H6^+
e + C2H6 => e + e + H + C2H5^+		! f54 * Bolsig+ C2H6 -> H C2H5^+
e + C2H6(v24) => e + e + H + C2H5^+		! f54 * Bolsig+ C2H6(v24) -> H C2H5^+
e + C2H6(v13) => e + e + H + C2H5^+		! f54 * Bolsig+ C2H6(v13) -> H C2H5^+
e + C2H6 => e + e + H2 + C2H4^+		! f55 * Bolsig+ C2H6 -> H2 C2H4^+
e + C2H6(v24) => e + e + H2 + C2H4^+		! f55 * Bolsig+ C2H6(v24) -> H2 C2H4^+
e + C2H6(v13) => e + e + H2 + C2H4^+		! f55 * Bolsig+ C2H6(v13) -> H2 C2H4^+
e + C2H6 => e + e + H2 + H + C2H3^+		! f56 * Bolsig+ C2H6 -> H2 H C2H3^+
e + C2H6(v24) => e + e + H2 + H + C2H3^+		! f56 * Bolsig+ C2H6(v24) -> H2 H C2H3^+
e + C2H6(v13) => e + e + H2 + H + C2H3^+		! f56 * Bolsig+ C2H6(v13) -> H2 H C2H3^+
e + C2H6 => e + e + H2 + H2 + C2H2^+		! f57 * Bolsig+ C2H6 -> H2 H2 C2H2^+
e + C2H6(v24) => e + e + H2 + H2 + C2H2^+		! f57 * Bolsig+ C2H6(v24) -> H2 H2 C2H2^+
e + C2H6(v13) => e + e + H2 + H2 + C2H2^+		! f57 * Bolsig+ C2H6(v13) -> H2 H2 C2H2^+
e + C2H6 => e + e + CH3 + CH3^+		! f58 * Bolsig+ C2H6 -> CH3 CH3^+
e + C2H6(v24) => e + e + CH3 + CH3^+		! f58 * Bolsig+ C2H6(v24) -> CH3 CH3^+
e + C2H6(v13) => e + e + CH3 + CH3^+		! f58 * Bolsig+ C2H6(v13) -> CH3 CH3^+
e + C2H6 => e + e + CH4 + CH2^+		! f59 * Bolsig+ C2H6 -> CH4 CH2^+
e + C2H6(v24) => e + e + CH4 + CH2^+		! f59 * Bolsig+ C2H6(v24) -> CH4 CH2^+
e + C2H6(v13) => e + e + CH4 + CH2^+		! f59 * Bolsig+ C2H6(v13) -> CH4 CH2^+
e + C2H5 => e + e + C2H5^+		! f60 * Bolsig+ C2H5 -> C2H5^+
e + C2H5 => e + e + H + C2H4^+		! f61 * Bolsig+ C2H5 -> H C2H4^+
e + C2H5 => e + e + H2 + C2H3^+		! f62 * Bolsig+ C2H5 -> H2 C2H3^+
e + C2H5 => e + e + H2 + H + C2H2^+		! f63 * Bolsig+ C2H5 -> H2 H C2H2^+
e + C2H5 => e + e + CH2 + CH3^+		! f64 * Bolsig+ C2H5 -> CH2 CH3^+
e + C2H5 => e + e + CH3 + CH2^+		! f65 * Bolsig+ C2H5 -> CH3 CH2^+
e + C2H5 => e + e + CH4 + CH^+		! f66 * Bolsig+ C2H5 -> CH4 CH^+
e + C2H4 => e + e + C2H4^+		! f67 * Bolsig+ C2H4 -> C2H4^+
e + C2H4(v1) => e + e + C2H4^+		! f67 * Bolsig+ C2H4(v1) -> C2H4^+
e + C2H4(v2) => e + e + C2H4^+		! f67 * Bolsig+ C2H4(v2) -> C2H4^+
e + C2H4 => e + e + H + C2H3^+		! f68 * Bolsig+ C2H4 -> H C2H3^+
e + C2H4(v1) => e + e + H + C2H3^+		! f68 * Bolsig+ C2H4(v1) -> H C2H3^+
e + C2H4(v2) => e + e + H + C2H3^+		! f68 * Bolsig+ C2H4(v2) -> H C2H3^+
e + C2H4 => e + e + CH + CH3^+		! f69 * Bolsig+ C2H4 -> CH CH3^+
e + C2H4(v1) => e + e + CH + CH3^+		! f69 * Bolsig+ C2H4(v1) -> CH CH3^+
e + C2H4(v2) => e + e + CH + CH3^+		! f69 * Bolsig+ C2H4(v2) -> CH CH3^+
e + C2H4 => e + e + CH2 + CH2^+		! f70 * Bolsig+ C2H4 -> CH2 CH2^+
e + C2H4(v1) => e + e + CH2 + CH2^+		! f70 * Bolsig+ C2H4(v1) -> CH2 CH2^+
e + C2H4(v2) => e + e + CH2 + CH2^+		! f70 * Bolsig+ C2H4(v2) -> CH2 CH2^+
e + C2H4 => e + e + CH3 + CH^+		! f71 * Bolsig+ C2H4 -> CH3 CH^+
e + C2H4(v1) => e + e + CH3 + CH^+		! f71 * Bolsig+ C2H4(v1) -> CH3 CH^+
e + C2H4(v2) => e + e + CH3 + CH^+		! f71 * Bolsig+ C2H4(v2) -> CH3 CH^+
e + C2H3 => e + e + C2H3^+		! f72 * Bolsig+ C2H3 -> C2H3^+
e + C2H3 => e + e + H + C2H2^+		! f73 * Bolsig+ C2H3 -> H C2H2^+
e + C2H3 => e + e + CH + CH2^+		! f74 * Bolsig+ C2H3 -> CH CH2^+
e + C2H3 => e + e + CH2 + CH^+		! f75 * Bolsig+ C2H3 -> CH2 CH^+
e + C2H3 => e + e + C2H2 + H^+		! f76 * Bolsig+ C2H3 -> C2H2 H^+
e + C2H2 => e + e + C2H2^+		! f77 * Bolsig+ C2H2 -> C2H2^+
e + C2H2(v5) => e + e + C2H2^+		! f77 * Bolsig+ C2H2(v5) -> C2H2^+
e + C2H2(v2) => e + e + C2H2^+		! f77 * Bolsig+ C2H2(v2) -> C2H2^+
e + C2H2(v13) => e + e + C2H2^+		! f77 * Bolsig+ C2H2(v13) -> C2H2^+
e + C2H2 => e + e + CH + CH^+		! f78 * Bolsig+ C2H2 -> CH CH^+
e + C2H2(v5) => e + e + CH + CH^+		! f78 * Bolsig+ C2H2(v5) -> CH CH^+
e + C2H2(v2) => e + e + CH + CH^+		! f78 * Bolsig+ C2H2(v2) -> CH CH^+
e + C2H2(v13) => e + e + CH + CH^+		! f78 * Bolsig+ C2H2(v13) -> CH CH^+
e + C3H8 => e + C3H7 + H		! f79 * Bolsig+ C3H8 -> C3H7 H
e + C3H8(v1) => e + C3H7 + H		! f79 * Bolsig+ C3H8(v1) -> C3H7 H
e + C3H8(v2) => e + C3H7 + H		! f79 * Bolsig+ C3H8(v2) -> C3H7 H
e + C3H8 => e + C3H6 + H2		! f80 * Bolsig+ C3H8 -> C3H6 H2
e + C3H8(v1) => e + C3H6 + H2		! f80 * Bolsig+ C3H8(v1) -> C3H6 H2
e + C3H8(v2) => e + C3H6 + H2		! f80 * Bolsig+ C3H8(v2) -> C3H6 H2
e + C3H7 => e + C3H6 + H		! f81 * Bolsig+ C3H7 -> C3H6 H
e + C3H8 => e + e + C3H8^+		! f82 * Bolsig+ C3H8 -> C3H8^+
e + C3H8(v1) => e + e + C3H8^+		! f82 * Bolsig+ C3H8(v1) -> C3H8^+
e + C3H8(v2) => e + e + C3H8^+		! f82 * Bolsig+ C3H8(v2) -> C3H8^+
e + C3H8 => e + e + H + C3H7^+		! f83 * Bolsig+ C3H8 -> H C3H7^+
e + C3H8(v1) => e + e + H + C3H7^+		! f83 * Bolsig+ C3H8(v1) -> H C3H7^+
e + C3H8(v2) => e + e + H + C3H7^+		! f83 * Bolsig+ C3H8(v2) -> H C3H7^+
e + C3H8 => e + e + H2 + C3H6^+		! f84 * Bolsig+ C3H8 -> H2 C3H6^+
e + C3H8(v1) => e + e + H2 + C3H6^+		! f84 * Bolsig+ C3H8(v1) -> H2 C3H6^+
e + C3H8(v2) => e + e + H2 + C3H6^+		! f84 * Bolsig+ C3H8(v2) -> H2 C3H6^+
e + C3H7 => e + e + C3H7^+		! f85 * Bolsig+ C3H7 -> C3H7^+
e + C3H7 => e + e + H + C3H6^+		! f86 * Bolsig+ C3H7 -> H C3H6^+
e + C3H6 => e + e + C3H6^+		! f87 * Bolsig+ C3H6 -> C3H6^+
e + C3H6(v) => e + e + C3H6^+		! f87 * Bolsig+ C3H6(v) -> C3H6^+
e + C3H6 => e + C2H2 + CH4		! f88 * Bolsig+ C3H6 -> C2H2 CH4
e + C3H6(v) => e + C2H2 + CH4		! f88 * Bolsig+ C3H6(v) -> C2H2 CH4
e + C3H6 => e + e + C2H2 + CH4^+		! f89 * Bolsig+ C3H6 -> C2H2 CH4^+
e + C3H6(v) => e + e + C2H2 + CH4^+		! f89 * Bolsig+ C3H6(v) -> C2H2 CH4^+

# Ion Recombination Reaction
e + e + CH^+ => e + CH		! f90 * 1.00d0
e + e + CH2^+ => e + CH2		! f91 * 1.00d0
e + e + CH3^+ => e + CH3		! f92 * 1.00d0
e + e + CH4^+ => e + CH4		! f93 * 1.00d0
e + e + C2H2^+ => e + C2H2		! f94 * 1.00d0
e + e + C2H3^+ => e + C2H3		! f95 * 1.00d0
e + e + C2H4^+ => e + C2H4		! f96 * 1.00d0
e + e + C2H5^+ => e + C2H5		! f97 * 1.00d0
e + e + C2H6^+ => e + C2H6		! f98 * 1.00d0
e + e + C3H6^+ => e + C3H6		! f99 * 1.00d0
e + e + C3H7^+ => e + C3H7		! f100 * 1.00d0
e + e + C3H8^+ => e + C3H8		! f101 * 1.00d0

# Gas Phase Reaction
e + CH4^+ => CH3 + H		! f102 * 1.18d-08 * (300./Tgas)**0.5
e + CH4^+ => CH2 + H + H		! f103 * 2.42d-08 * (300./Tgas)**0.5
e + CH4^+ => CH + H2 + H		! f104 * 1.41d-08 * (300./Tgas)**0.5
e + CH3^+ => CH2 + H		! f105 * 2.25d-08 * (300./Tgas)**0.5
e + CH3^+ => CH + H2		! f106 * 7.88d-09 * (300./Tgas)**0.5
e + CH3^+ => CH + H + H		! f107 * 9.00d-09 * (300./Tgas)**0.5
e + CH3^+ => C + H2 + H		! f108 * 1.69d-08 * (300./Tgas)**0.5
e + CH2^+ => CH + H		! f109 * 1.00d-08 * (300./Tgas)**0.5
e + CH2^+ => C + H2		! f110 * 4.82d-09 * (300./Tgas)**0.5
e + CH2^+ => C + H + H		! f111 * 2.53d-08 * (300./Tgas)**0.5
e + CH^+ => C + H		! f112 * 3.23d-08 * (300./Tgas)**0.42
e + C2H6^+ => C2H5 + H		! f113 * 2.19d-08 * (300./Tgas)**0.71
e + C2H6^+ => C2H4 + H + H		! f114 * 3.36d-08 * (300./Tgas)**0.71
e + C2H5^+ => C2H4 + H		! f115 * 7.70d-09 * (300./Tgas)**0.71
e + C2H5^+ => C2H3 + H + H		! f116 * 1.92d-08 * (300./Tgas)**0.71
e + C2H5^+ => C2H2 + H2 + H		! f117 * 1.60d-08 * (300./Tgas)**0.71
e + C2H5^+ => C2H2 + H + H + H		! f118 * 8.98d-09 * (300./Tgas)**0.71
e + C2H5^+ => CH3 + CH2		! f119 * 9.62d-09 * (300./Tgas)**0.71
e + C2H4^+ => C2H3 + H		! f120 * 8.29d-09 * (300./Tgas)**0.71
e + C2H4^+ => C2H2 + H + H		! f121 * 3.43d-08 * (300./Tgas)**0.71
e + C2H3^+ => C2H2 + H		! f122 * 1.34d-08 * (300./Tgas)**0.71
e + C2H2^+ => CH + CH		! f123 * 4.87d-09 * (300./Tgas)**0.71
e + H2^+ => H + H		! f124 * 3.17d21/(6.022d23 * Te**4.5)
e + H3^+ => H + H2		! f125 * 3.17d21/(6.022d23 * Te**4.5)
H2 + H2^+ => H + H3^+		! f126 * 2.11d-09
C2H6 + CH4^+ => CH4 + H2 + C2H4^+		! f127 * 1.91d-9
C2H6(v24) + CH4^+ => CH4 + H2 + C2H4^+		! f127 * 1.91d-9
C2H6(v13) + CH4^+ => CH4 + H2 + C2H4^+		! f127 * 1.91d-9
C2H4 + CH4^+ => CH3 + C2H5^+		! f128 * 4.23d-10