ELEMENTS
e C H
END

SPECIES
e C CH CH^+ CH2 CH2^+ CH3 CH3^+ CH4 CH4(v13) CH4(v24) CH4^+ C2H2 C2H2(v13) C2H2(v2) C2H2(v5) C2H2^+ C2H3 C2H3^+ C2H4 C2H4(v1) C2H4(v2) C2H4^+ C2H5 C2H5^+
C2H6 C2H6(v13) C2H6(v24) C2H6^+ C3H5 C3H6 C3H6(v) C3H6^+ C3H7 C3H7^+ C3H8 C3H8(v1) C3H8(v2) C3H8^+ C4H9 C4H9H C2H C5H12 H H2 H2^+ H3^+ H^+
END

BOLSIG
CH CH2 CH3 CH4 CH4(v13) CH4(v24) C2H2 C2H2(v13) C2H2(v2) C2H2(v5) C2H3 C2H4 C2H4(v1) C2H4(v2) C2H5 C2H6 C2H6(v13) C2H6(v24) C3H6 C3H6(v) C3H7 C3H8 C3H8(v1) C3H8(v2)
END

REACTIONS
# Gas Constant
$ double precision, parameter :: R = 8.314d-3

# Compensation Parameters
$ double precision, parameter :: f0 = 2.6861d-4
$ double precision, parameter :: f1 = 7.9325d-2
$ double precision, parameter :: f2 = 4.0931d-8
$ double precision, parameter :: f3 = 1.9315d-2
$ double precision, parameter :: f4 = 4.3110d-4
$ double precision, parameter :: f5 = 4.9526d-6
$ double precision, parameter :: f6 = 2.6516d-6
$ double precision, parameter :: f7 = 5.5107d-1
$ double precision, parameter :: f8 = 1.0424d+1
$ double precision, parameter :: f9 = 3.2891d-1
$ double precision, parameter :: f10 = 3.9028d-8
$ double precision, parameter :: f11 = 5.0856d-1
$ double precision, parameter :: f12 = 2.0367d-2
$ double precision, parameter :: f13 = 2.4339d-3
$ double precision, parameter :: f14 = 6.7131d0
$ double precision, parameter :: f15 = 2.2818d-1
$ double precision, parameter :: f16 = 6.5483d-7
$ double precision, parameter :: f17 = 2.6840d-7
$ double precision, parameter :: f18 = 1.1145d-3
$ double precision, parameter :: f19 = 4.3812d-4
$ double precision, parameter :: f20 = 5.8103d-2
$ double precision, parameter :: f21 = 2.6889d-1
$ double precision, parameter :: f22 = 4.3535d-3
$ double precision, parameter :: f23 = 8.1011d-2
$ double precision, parameter :: f24 = 7.0807d-1
$ double precision, parameter :: f25 = 2.4524d-6
$ double precision, parameter :: f26 = 4.5320d+1
$ double precision, parameter :: f27 = 1.7619d-6
$ double precision, parameter :: f28 = 1.1802d-7
$ double precision, parameter :: f29 = 7.7193d+1
$ double precision, parameter :: f30 = 9.2073d+2
$ double precision, parameter :: f31 = 2.2746d-1
$ double precision, parameter :: f32 = 1.5633d-6
$ double precision, parameter :: f33 = 2.8366d-8
$ double precision, parameter :: f34 = 1.8065d-7
$ double precision, parameter :: f35 = 3.6882d+2
$ double precision, parameter :: f36 = 2.4266d-8
$ double precision, parameter :: f37 = 4.6741d-1
$ double precision, parameter :: f38 = 1.8413d0
$ double precision, parameter :: f39 = 1.3398d-7
$ double precision, parameter :: f40 = 7.0219d-8
$ double precision, parameter :: f41 = 7.1804d-8
$ double precision, parameter :: f42 = 1.4973d-1
$ double precision, parameter :: f43 = 5.1500d-8
$ double precision, parameter :: f44 = 6.0019d0
$ double precision, parameter :: f45 = 1.0618d-7
$ double precision, parameter :: f46 = 7.5184d-3
$ double precision, parameter :: f47 = 1.5569d+2
$ double precision, parameter :: f48 = 2.6616d+2
$ double precision, parameter :: f49 = 2.5672d-3
$ double precision, parameter :: f50 = 2.2742d+1
$ double precision, parameter :: f51 = 5.1723d-8
$ double precision, parameter :: f52 = 2.3455d-4
$ double precision, parameter :: f53 = 7.9119d+1
$ double precision, parameter :: f54 = 3.4582d+2
$ double precision, parameter :: f55 = 9.1200d-8
$ double precision, parameter :: f56 = 1.7934d-7
$ double precision, parameter :: f57 = 2.1185d-7
$ double precision, parameter :: f58 = 2.3118d-4
$ double precision, parameter :: f59 = 2.3918d-1
$ double precision, parameter :: f60 = 4.2274d0
$ double precision, parameter :: f61 = 2.1762d-4
$ double precision, parameter :: f62 = 2.8253d-6
$ double precision, parameter :: f63 = 5.4044d0
$ double precision, parameter :: f64 = 1.7243d+1
$ double precision, parameter :: f65 = 2.0519d-6
$ double precision, parameter :: f66 = 1.5017d-5
$ double precision, parameter :: f67 = 4.6559d-7
$ double precision, parameter :: f68 = 7.4207d-1
$ double precision, parameter :: f69 = 2.2525d-1
$ double precision, parameter :: f70 = 3.6630d-5
$ double precision, parameter :: f71 = 4.0682d+2
$ double precision, parameter :: f72 = 5.8317d-4
$ double precision, parameter :: f73 = 6.2065d+1
$ double precision, parameter :: f74 = 1.5348d-1
$ double precision, parameter :: f75 = 3.8981d-8
$ double precision, parameter :: f76 = 1.1473d0
$ double precision, parameter :: f77 = 2.2999d-7
$ double precision, parameter :: f78 = 1.4332d-6
$ double precision, parameter :: f79 = 1.4431d-6
$ double precision, parameter :: f80 = 5.4066d-8
$ double precision, parameter :: f81 = 3.2793d+1
$ double precision, parameter :: f82 = 9.9866d-7
$ double precision, parameter :: f83 = 4.2219d-3
$ double precision, parameter :: f84 = 1.2814d-3
$ double precision, parameter :: f85 = 4.8007d+2
$ double precision, parameter :: f86 = 1.6443d-7
$ double precision, parameter :: f87 = 3.0530d-5
$ double precision, parameter :: f88 = 7.6928d-8
$ double precision, parameter :: f89 = 1.3243d-3
$ double precision, parameter :: f90 = 1.0458d-8
$ double precision, parameter :: f91 = 1.7528d-4
$ double precision, parameter :: f92 = 1.3612d+2
$ double precision, parameter :: f93 = 1.3242d-7
$ double precision, parameter :: f94 = 3.0429d+2
$ double precision, parameter :: f95 = 4.6347d0
$ double precision, parameter :: f96 = 2.2384d+2
$ double precision, parameter :: f97 = 2.7036d+1
$ double precision, parameter :: f98 = 4.7040d-1
$ double precision, parameter :: f99 = 1.4769d-3
$ double precision, parameter :: f100 = 3.3127d-6
$ double precision, parameter :: f101 = 1.8578d+2
$ double precision, parameter :: f102 = 6.7517d-3
$ double precision, parameter :: f103 = 3.1586d+2
$ double precision, parameter :: f104 = 2.1644d+2
$ double precision, parameter :: f105 = 1.1836d-7
$ double precision, parameter :: f106 = 4.1320d-3
$ double precision, parameter :: f107 = 2.6453d-6
$ double precision, parameter :: f108 = 9.5830d-5
$ double precision, parameter :: f109 = 2.4566d+2
$ double precision, parameter :: f110 = 1.3931d-8
$ double precision, parameter :: f111 = 4.0627d-4
$ double precision, parameter :: f112 = 8.2282d-5
$ double precision, parameter :: f113 = 5.4508d-1
$ double precision, parameter :: f114 = 1.5775d-1
$ double precision, parameter :: f115 = 2.2487d+1
$ double precision, parameter :: f116 = 2.3282d-6
$ double precision, parameter :: f117 = 1.0558d-2
$ double precision, parameter :: f118 = 2.8310d-2
$ double precision, parameter :: f119 = 4.9645d-4
$ double precision, parameter :: f120 = 9.3360d-5
$ double precision, parameter :: f121 = 1.7042d-8
$ double precision, parameter :: f122 = 3.8498d0
$ double precision, parameter :: f123 = 5.1010d0
$ double precision, parameter :: f124 = 4.1345d-8
$ double precision, parameter :: f125 = 4.0141d+2
$ double precision, parameter :: f126 = 3.0396d-2
$ double precision, parameter :: f127 = 1.6200d-3
$ double precision, parameter :: f128 = 2.6483d-3
$ double precision, parameter :: f129 = 3.5436d-2
$ double precision, parameter :: f130 = 1.4717d-3
$ double precision, parameter :: f131 = 9.1634d+2
$ double precision, parameter :: f132 = 7.5138d+2
$ double precision, parameter :: f133 = 2.4475d-2
$ double precision, parameter :: f134 = 4.5407d-4
$ double precision, parameter :: f135 = 2.5505d-7
$ double precision, parameter :: f136 = 3.3289d0
$ double precision, parameter :: f137 = 6.2346d0
$ double precision, parameter :: f138 = 2.1661d-1
$ double precision, parameter :: f139 = 7.2569d-4
$ double precision, parameter :: f140 = 9.2597d-7
$ double precision, parameter :: f141 = 1.5814d-6
$ double precision, parameter :: f142 = 3.6509d-1
$ double precision, parameter :: f143 = 5.8927d-4
$ double precision, parameter :: f144 = 1.0888d-3
$ double precision, parameter :: f145 = 4.9027d0
$ double precision, parameter :: f146 = 9.1985d-5
$ double precision, parameter :: f147 = 1.0463d-5
$ double precision, parameter :: f148 = 8.4895d-8
$ double precision, parameter :: f149 = 4.3419d-4
$ double precision, parameter :: f150 = 1.7159d+1
$ double precision, parameter :: f151 = 1.5649d-3
$ double precision, parameter :: f152 = 2.9459d+1
$ double precision, parameter :: f153 = 1.1110d+1
$ double precision, parameter :: f154 = 7.2990d-8
$ double precision, parameter :: f155 = 1.5387d+1
$ double precision, parameter :: f156 = 4.6509d+2
$ double precision, parameter :: f157 = 1.9269d-6
$ double precision, parameter :: f158 = 1.2642d+2
$ double precision, parameter :: f159 = 1.7294d-2
$ double precision, parameter :: f160 = 1.4976d-5
$ double precision, parameter :: f161 = 3.2665d-3
$ double precision, parameter :: f162 = 9.8025d-6
$ double precision, parameter :: f163 = 3.1417d-2
$ double precision, parameter :: f164 = 2.5557d+2
$ double precision, parameter :: f165 = 2.3196d-2
$ double precision, parameter :: f166 = 3.4533d-8
$ double precision, parameter :: f167 = 2.5548d-6
$ double precision, parameter :: f168 = 5.2328d+2
$ double precision, parameter :: f169 = 3.2394d-4
$ double precision, parameter :: f170 = 1.7311d-2
$ double precision, parameter :: f171 = 5.9153d-2
$ double precision, parameter :: f172 = 2.8377d0
$ double precision, parameter :: f173 = 4.8960d-2
$ double precision, parameter :: f174 = 1.2859d+2
$ double precision, parameter :: f175 = 3.3862d0
$ double precision, parameter :: f176 = 3.0495d-8
$ double precision, parameter :: f177 = 7.5453d0
$ double precision, parameter :: f178 = 1.3100d+2
$ double precision, parameter :: f179 = 1.4972d0
$ double precision, parameter :: f180 = 9.9610d-6
$ double precision, parameter :: f181 = 2.8262d-5
$ double precision, parameter :: f182 = 5.1680d+2
$ double precision, parameter :: f183 = 7.9842d0
$ double precision, parameter :: f184 = 6.0771d-4
$ double precision, parameter :: f185 = 1.6615d-4
$ double precision, parameter :: f186 = 1.8680d-6
$ double precision, parameter :: f187 = 2.6353d-6
$ double precision, parameter :: f188 = 7.9852d+2
$ double precision, parameter :: f189 = 1.5006d-7
$ double precision, parameter :: f190 = 2.2111d0
$ double precision, parameter :: f191 = 1.0898d0
$ double precision, parameter :: f192 = 4.6114d-3
$ double precision, parameter :: f193 = 3.0779d+1
$ double precision, parameter :: f194 = 8.4916d-2
$ double precision, parameter :: f195 = 1.1171d+2
$ double precision, parameter :: f196 = 3.3351d-1
$ double precision, parameter :: f197 = 6.0257d-8
$ double precision, parameter :: f198 = 5.8550d+2
$ double precision, parameter :: f199 = 1.2056d+1
$ double precision, parameter :: f200 = 5.2230d-1
$ double precision, parameter :: f201 = 2.6352d+2
$ double precision, parameter :: f202 = 1.6811d+2
$ double precision, parameter :: f203 = 6.1034d-4
$ double precision, parameter :: f204 = 1.9096d-8
$ double precision, parameter :: f205 = 2.9865d+2
$ double precision, parameter :: f206 = 3.4792d-5
$ double precision, parameter :: f207 = 1.3971d-5
$ double precision, parameter :: f208 = 1.5254d+1
$ double precision, parameter :: f209 = 2.5224d-6
$ double precision, parameter :: f210 = 9.3391d-7
$ double precision, parameter :: f211 = 5.7078d-2
$ double precision, parameter :: f212 = 4.0659d-4
$ double precision, parameter :: f213 = 1.5044d-6
$ double precision, parameter :: f214 = 7.1649d+2
$ double precision, parameter :: f215 = 1.4142d-5
$ double precision, parameter :: f216 = 2.8170d-7
$ double precision, parameter :: f217 = 1.1718d+1
$ double precision, parameter :: f218 = 1.0865d+2
$ double precision, parameter :: f219 = 2.9173d+2
$ double precision, parameter :: f220 = 1.4376d-5
$ double precision, parameter :: f221 = 6.6126d-8
$ double precision, parameter :: f222 = 1.9831d+2
$ double precision, parameter :: f223 = 6.8363d0
$ double precision, parameter :: f224 = 9.1301d+1
$ double precision, parameter :: f225 = 1.3367d-4
$ double precision, parameter :: f226 = 7.4643d-1
$ double precision, parameter :: f227 = 1.7380d-2
$ double precision, parameter :: f228 = 1.9645d0
$ double precision, parameter :: f229 = 5.3076d0
$ double precision, parameter :: f230 = 6.6038d-6
$ double precision, parameter :: f231 = 2.4883d-2
$ double precision, parameter :: f232 = 1.3738d+2
$ double precision, parameter :: f233 = 4.7222d-7
$ double precision, parameter :: f234 = 9.0853d+1
$ double precision, parameter :: f235 = 1.0672d-4
$ double precision, parameter :: f236 = 8.3117d-2
$ double precision, parameter :: f237 = 8.9188d-4
$ double precision, parameter :: f238 = 2.0099d-6
$ double precision, parameter :: f239 = 4.9396d-6
$ double precision, parameter :: f240 = 6.4376d-3
$ double precision, parameter :: f241 = 4.5340d+2
$ double precision, parameter :: f242 = 2.1208d-5
$ double precision, parameter :: f243 = 2.2186d0
$ double precision, parameter :: f244 = 1.6853d-5
$ double precision, parameter :: f245 = 2.2955d-3
$ double precision, parameter :: f246 = 2.6095d-5
$ double precision, parameter :: f247 = 1.0233d-7
$ double precision, parameter :: f248 = 8.0634d-6
$ double precision, parameter :: f249 = 2.8909d+1
$ double precision, parameter :: f250 = 4.4233d-3
$ double precision, parameter :: f251 = 2.1620d-8
$ double precision, parameter :: f252 = 3.1648d+2
$ double precision, parameter :: f253 = 1.1734d-6
$ double precision, parameter :: f254 = 2.2175d-6
$ double precision, parameter :: f255 = 2.2302d-3
$ double precision, parameter :: f256 = 1.2767d-5
$ double precision, parameter :: f257 = 1.2625d-5
$ double precision, parameter :: f258 = 7.0479d-5
$ double precision, parameter :: f259 = 6.5970d-6
$ double precision, parameter :: f260 = 2.0697d-2
$ double precision, parameter :: f261 = 3.2105d-2
$ double precision, parameter :: f262 = 2.9572d-5
$ double precision, parameter :: f263 = 7.9846d-4
$ double precision, parameter :: f264 = 1.0615d-3
$ double precision, parameter :: f265 = 1.3096d-6
$ double precision, parameter :: f266 = 3.9071d-5
$ double precision, parameter :: f267 = 1.3790d-8
$ double precision, parameter :: f268 = 3.6492d0
$ double precision, parameter :: f269 = 4.2869d-2
$ double precision, parameter :: f270 = 3.3991d-2
$ double precision, parameter :: f271 = 5.5997d-4
$ double precision, parameter :: f272 = 3.0557d+1
$ double precision, parameter :: f273 = 2.6301d-7
$ double precision, parameter :: f274 = 3.3819d+1
$ double precision, parameter :: f275 = 1.1331d-4
$ double precision, parameter :: f276 = 6.9446d-6
$ double precision, parameter :: f277 = 1.9333d-6
$ double precision, parameter :: f278 = 6.6479d-2
$ double precision, parameter :: f279 = 1.7461d+2
$ double precision, parameter :: f280 = 4.0973d0
$ double precision, parameter :: f281 = 5.6390d+2
$ double precision, parameter :: f282 = 1.1684d+1
$ double precision, parameter :: f283 = 4.7021d-6
$ double precision, parameter :: f284 = 2.3362d-2
$ double precision, parameter :: f285 = 1.4584d-3
$ double precision, parameter :: f286 = 3.6036d-3
$ double precision, parameter :: f287 = 8.9145d-6
$ double precision, parameter :: f288 = 1.2778d-6
$ double precision, parameter :: f289 = 4.2482d-2
$ double precision, parameter :: f290 = 2.4697d-2
$ double precision, parameter :: f291 = 3.0575d+2
$ double precision, parameter :: f292 = 4.8721d+2
$ double precision, parameter :: f293 = 2.8844d-7
$ double precision, parameter :: f294 = 1.0595d-5
$ double precision, parameter :: f295 = 5.5897d-6
$ double precision, parameter :: f296 = 7.5275d-8
$ double precision, parameter :: f297 = 1.7765d0
$ double precision, parameter :: f298 = 9.0263d+2
$ double precision, parameter :: f299 = 3.8455d-7
$ double precision, parameter :: f300 = 2.4296d+1
$ double precision, parameter :: f301 = 9.3700d0
$ double precision, parameter :: f302 = 1.2694d-3
$ double precision, parameter :: f303 = 1.0078d-7
$ double precision, parameter :: f304 = 7.3509d-3
$ double precision, parameter :: f305 = 1.0387d-7
$ double precision, parameter :: f306 = 3.8366d-2
$ double precision, parameter :: f307 = 1.5627d-6
$ double precision, parameter :: f308 = 1.0642d-8
$ double precision, parameter :: f309 = 1.4242d-4
$ double precision, parameter :: f310 = 5.2451d-6
$ double precision, parameter :: f311 = 4.8450d-2
$ double precision, parameter :: f312 = 4.1324d-4
$ double precision, parameter :: f313 = 1.7786d-4
$ double precision, parameter :: f314 = 2.0179d-5
$ double precision, parameter :: f315 = 1.6117d-7

# Electron Collision Reaction
e + CH4 => e + CH4(v24)		! f0 * Bolsig+ CH4 -> CH4(v24)
e + CH4 => e + CH4(v13)		! f1 * Bolsig+ CH4 -> CH4(v13)
e + C2H6 => e + C2H6(v24)		! f2 * Bolsig+ C2H6 -> C2H6(v24)
e + C2H6 => e + C2H6(v13)		! f3 * Bolsig+ C2H6 -> C2H6(v13)
e + C2H4 => e + C2H4(v1)		! f4 * Bolsig+ C2H4 -> C2H4(v1)
e + C2H4 => e + C2H4(v2)		! f5 * Bolsig+ C2H4 -> C2H4(v2)
e + C2H2 => e + C2H2(v5)		! f6 * Bolsig+ C2H2 -> C2H2(v5)
e + C2H2 => e + C2H2(v2)		! f7 * Bolsig+ C2H2 -> C2H2(v2)
e + C2H2 => e + C2H2(v13)		! f8 * Bolsig+ C2H2 -> C2H2(v13)
e + C3H8 => e + C3H8(v1)		! f9 * Bolsig+ C3H8 -> C3H8(v1)
e + C3H8 => e + C3H8(v2)		! f10 * Bolsig+ C3H8 -> C3H8(v2)
e + C3H6 => e + C3H6(v)		! f11 * Bolsig+ C3H6 -> C3H6(v)
e + CH4 => e + CH3 + H		! f12 * Bolsig+ CH4 -> CH3 H
e + CH4(v24) => e + CH3 + H		! f12 * Bolsig+ CH4(v24) -> CH3 H
e + CH4(v13) => e + CH3 + H		! f12 * Bolsig+ CH4(v13) -> CH3 H
e + CH4 => e + CH2 + H2		! f13 * Bolsig+ CH4 -> CH2 H2
e + CH4(v24) => e + CH2 + H2		! f13 * Bolsig+ CH4(v24) -> CH2 H2
e + CH4(v13) => e + CH2 + H2		! f13 * Bolsig+ CH4(v13) -> CH2 H2
e + CH4 => e + CH + H2 + H		! f14 * Bolsig+ CH4 -> CH H2 H
e + CH4(v24) => e + CH + H2 + H		! f14 * Bolsig+ CH4(v24) -> CH H2 H
e + CH4(v13) => e + CH + H2 + H		! f14 * Bolsig+ CH4(v13) -> CH H2 H
e + CH4 => e + C + H2 + H2		! f15 * Bolsig+ CH4 -> C H2 H2
e + CH4(v24) => e + C + H2 + H2		! f15 * Bolsig+ CH4(v24) -> C H2 H2
e + CH4(v13) => e + C + H2 + H2		! f15 * Bolsig+ CH4(v13) -> C H2 H2
e + CH3 => e + CH2 + H		! f16 * Bolsig+ CH3 -> CH2 H
e + CH3 => e + CH + H2		! f17 * Bolsig+ CH3 -> CH H2
e + CH3 => e + C + H2 + H		! f18 * Bolsig+ CH3 -> C H2 H
e + CH2 => e + CH + H		! f19 * Bolsig+ CH2 -> CH H
e + CH2 => e + C + H2		! f20 * Bolsig+ CH2 -> C H2
e + CH2 => e + C + H + H		! f21 * Bolsig+ CH2 -> C H H
e + CH => e + C + H		! f22 * Bolsig+ CH -> C H
e + CH4 => e + e + CH4^+		! f23 * Bolsig+ CH4 -> CH4^+
e + CH4(v24) => e + e + CH4^+		! f23 * Bolsig+ CH4(v24) -> CH4^+
e + CH4(v13) => e + e + CH4^+		! f23 * Bolsig+ CH4(v13) -> CH4^+
e + CH4 => e + e + H + CH3^+		! f24 * Bolsig+ CH4 -> H CH3^+
e + CH4(v24) => e + e + H + CH3^+		! f24 * Bolsig+ CH4(v24) -> H CH3^+
e + CH4(v13) => e + e + H + CH3^+		! f24 * Bolsig+ CH4(v13) -> H CH3^+
e + CH4 => e + e + H2 + CH2^+		! f25 * Bolsig+ CH4 -> H2 CH2^+
e + CH4(v24) => e + e + H2 + CH2^+		! f25 * Bolsig+ CH4(v24) -> H2 CH2^+
e + CH4(v13) => e + e + H2 + CH2^+		! f25 * Bolsig+ CH4(v13) -> H2 CH2^+
e + CH4 => e + e + H2 + H + CH^+		! f26 * Bolsig+ CH4 -> H2 H CH^+
e + CH4(v24) => e + e + H2 + H + CH^+		! f26 * Bolsig+ CH4(v24) -> H2 H CH^+
e + CH4(v13) => e + e + H2 + H + CH^+		! f26 * Bolsig+ CH4(v13) -> H2 H CH^+
e + CH3 => e + e + CH3^+		! f27 * Bolsig+ CH3 -> CH3^+
e + CH3 => e + e + H + CH2^+		! f28 * Bolsig+ CH3 -> H CH2^+
e + CH3 => e + e + H2 + CH^+		! f29 * Bolsig+ CH3 -> H2 CH^+
e + CH2 => e + e + CH2^+		! f30 * Bolsig+ CH2 -> CH2^+
e + CH2 => e + e + H + CH^+		! f31 * Bolsig+ CH2 -> H CH^+
e + CH => e + e + CH^+		! f32 * Bolsig+ CH -> CH^+
e + C2H6 => e + C2H5 + H		! f33 * Bolsig+ C2H6 -> C2H5 H
e + C2H6(v24) => e + C2H5 + H		! f33 * Bolsig+ C2H6(v24) -> C2H5 H
e + C2H6(v13) => e + C2H5 + H		! f33 * Bolsig+ C2H6(v13) -> C2H5 H
e + C2H6 => e + C2H4 + H2		! f34 * Bolsig+ C2H6 -> C2H4 H2
e + C2H6(v24) => e + C2H4 + H2		! f34 * Bolsig+ C2H6(v24) -> C2H4 H2
e + C2H6(v13) => e + C2H4 + H2		! f34 * Bolsig+ C2H6(v13) -> C2H4 H2
e + C2H6 => e + C2H3 + H2 + H		! f35 * Bolsig+ C2H6 -> C2H3 H2 H
e + C2H6(v24) => e + C2H3 + H2 + H		! f35 * Bolsig+ C2H6(v24) -> C2H3 H2 H
e + C2H6(v13) => e + C2H3 + H2 + H		! f35 * Bolsig+ C2H6(v13) -> C2H3 H2 H
e + C2H6 => e + C2H2 + H2 + H2		! f36 * Bolsig+ C2H6 -> C2H2 H2 H2
e + C2H6(v24) => e + C2H2 + H2 + H2		! f36 * Bolsig+ C2H6(v24) -> C2H2 H2 H2
e + C2H6(v13) => e + C2H2 + H2 + H2		! f36 * Bolsig+ C2H6(v13) -> C2H2 H2 H2
e + C2H6 => e + CH4 + CH2		! f37 * Bolsig+ C2H6 -> CH4 CH2
e + C2H6(v24) => e + CH4 + CH2		! f37 * Bolsig+ C2H6(v24) -> CH4 CH2
e + C2H6(v13) => e + CH4 + CH2		! f37 * Bolsig+ C2H6(v13) -> CH4 CH2
e + C2H6 => e + CH3 + CH3		! f38 * Bolsig+ C2H6 -> CH3 CH3
e + C2H6(v24) => e + CH3 + CH3		! f38 * Bolsig+ C2H6(v24) -> CH3 CH3
e + C2H6(v13) => e + CH3 + CH3		! f38 * Bolsig+ C2H6(v13) -> CH3 CH3
e + C2H5 => e + C2H4 + H		! f39 * Bolsig+ C2H5 -> C2H4 H
e + C2H5 => e + C2H3 + H2		! f40 * Bolsig+ C2H5 -> C2H3 H2
e + C2H5 => e + C2H3 + H + H		! f41 * Bolsig+ C2H5 -> C2H3 H H
e + C2H5 => e + C2H2 + H2 + H		! f42 * Bolsig+ C2H5 -> C2H2 H2 H
e + C2H5 => e + CH4 + CH		! f43 * Bolsig+ C2H5 -> CH4 CH
e + C2H5 => e + CH3 + CH2		! f44 * Bolsig+ C2H5 -> CH3 CH2
e + C2H4 => e + C2H3 + H		! f45 * Bolsig+ C2H4 -> C2H3 H
e + C2H4(v1) => e + C2H3 + H		! f45 * Bolsig+ C2H4(v1) -> C2H3 H
e + C2H4(v2) => e + C2H3 + H		! f45 * Bolsig+ C2H4(v2) -> C2H3 H
e + C2H4 => e + C2H2 + H2		! f46 * Bolsig+ C2H4 -> C2H2 H2
e + C2H4(v1) => e + C2H2 + H2		! f46 * Bolsig+ C2H4(v1) -> C2H2 H2
e + C2H4(v2) => e + C2H2 + H2		! f46 * Bolsig+ C2H4(v2) -> C2H2 H2
e + C2H4 => e + C2H2 + H + H		! f47 * Bolsig+ C2H4 -> C2H2 H H
e + C2H4(v1) => e + C2H2 + H + H		! f47 * Bolsig+ C2H4(v1) -> C2H2 H H
e + C2H4(v2) => e + C2H2 + H + H		! f47 * Bolsig+ C2H4(v2) -> C2H2 H H
e + C2H4 => e + CH3 + CH		! f48 * Bolsig+ C2H4 -> CH3 CH
e + C2H4(v1) => e + CH3 + CH		! f48 * Bolsig+ C2H4(v1) -> CH3 CH
e + C2H4(v2) => e + CH3 + CH		! f48 * Bolsig+ C2H4(v2) -> CH3 CH
e + C2H4 => e + CH2 + CH2		! f49 * Bolsig+ C2H4 -> CH2 CH2
e + C2H4(v1) => e + CH2 + CH2		! f49 * Bolsig+ C2H4(v1) -> CH2 CH2
e + C2H4(v2) => e + CH2 + CH2		! f49 * Bolsig+ C2H4(v2) -> CH2 CH2
e + C2H3 => e + C2H2 + H		! f50 * Bolsig+ C2H3 -> C2H2 H
e + C2H3 => e + CH2 + CH		! f51 * Bolsig+ C2H3 -> CH2 CH
e + C2H2 => e + CH + CH		! f52 * Bolsig+ C2H2 -> CH CH
e + C2H2(v5) => e + CH + CH		! f52 * Bolsig+ C2H2(v5) -> CH CH
e + C2H2(v2) => e + CH + CH		! f52 * Bolsig+ C2H2(v2) -> CH CH
e + C2H2(v13) => e + CH + CH		! f52 * Bolsig+ C2H2(v13) -> CH CH
e + C2H6 => e + e + C2H6^+		! f53 * Bolsig+ C2H6 -> C2H6^+
e + C2H6(v24) => e + e + C2H6^+		! f53 * Bolsig+ C2H6(v24) -> C2H6^+
e + C2H6(v13) => e + e + C2H6^+		! f53 * Bolsig+ C2H6(v13) -> C2H6^+
e + C2H6 => e + e + H + C2H5^+		! f54 * Bolsig+ C2H6 -> H C2H5^+
e + C2H6(v24) => e + e + H + C2H5^+		! f54 * Bolsig+ C2H6(v24) -> H C2H5^+
e + C2H6(v13) => e + e + H + C2H5^+		! f54 * Bolsig+ C2H6(v13) -> H C2H5^+
e + C2H6 => e + e + H2 + C2H4^+		! f55 * Bolsig+ C2H6 -> H2 C2H4^+
e + C2H6(v24) => e + e + H2 + C2H4^+		! f55 * Bolsig+ C2H6(v24) -> H2 C2H4^+
e + C2H6(v13) => e + e + H2 + C2H4^+		! f55 * Bolsig+ C2H6(v13) -> H2 C2H4^+
e + C2H6 => e + e + H2 + H + C2H3^+		! f56 * Bolsig+ C2H6 -> H2 H C2H3^+
e + C2H6(v24) => e + e + H2 + H + C2H3^+		! f56 * Bolsig+ C2H6(v24) -> H2 H C2H3^+
e + C2H6(v13) => e + e + H2 + H + C2H3^+		! f56 * Bolsig+ C2H6(v13) -> H2 H C2H3^+
e + C2H6 => e + e + H2 + H2 + C2H2^+		! f57 * Bolsig+ C2H6 -> H2 H2 C2H2^+
e + C2H6(v24) => e + e + H2 + H2 + C2H2^+		! f57 * Bolsig+ C2H6(v24) -> H2 H2 C2H2^+
e + C2H6(v13) => e + e + H2 + H2 + C2H2^+		! f57 * Bolsig+ C2H6(v13) -> H2 H2 C2H2^+
e + C2H6 => e + e + CH3 + CH3^+		! f58 * Bolsig+ C2H6 -> CH3 CH3^+
e + C2H6(v24) => e + e + CH3 + CH3^+		! f58 * Bolsig+ C2H6(v24) -> CH3 CH3^+
e + C2H6(v13) => e + e + CH3 + CH3^+		! f58 * Bolsig+ C2H6(v13) -> CH3 CH3^+
e + C2H6 => e + e + CH4 + CH2^+		! f59 * Bolsig+ C2H6 -> CH4 CH2^+
e + C2H6(v24) => e + e + CH4 + CH2^+		! f59 * Bolsig+ C2H6(v24) -> CH4 CH2^+
e + C2H6(v13) => e + e + CH4 + CH2^+		! f59 * Bolsig+ C2H6(v13) -> CH4 CH2^+
e + C2H5 => e + e + C2H5^+		! f60 * Bolsig+ C2H5 -> C2H5^+
e + C2H5 => e + e + H + C2H4^+		! f61 * Bolsig+ C2H5 -> H C2H4^+
e + C2H5 => e + e + H2 + C2H3^+		! f62 * Bolsig+ C2H5 -> H2 C2H3^+
e + C2H5 => e + e + H2 + H + C2H2^+		! f63 * Bolsig+ C2H5 -> H2 H C2H2^+
e + C2H5 => e + e + CH2 + CH3^+		! f64 * Bolsig+ C2H5 -> CH2 CH3^+
e + C2H5 => e + e + CH3 + CH2^+		! f65 * Bolsig+ C2H5 -> CH3 CH2^+
e + C2H5 => e + e + CH4 + CH^+		! f66 * Bolsig+ C2H5 -> CH4 CH^+
e + C2H4 => e + e + C2H4^+		! f67 * Bolsig+ C2H4 -> C2H4^+
e + C2H4(v1) => e + e + C2H4^+		! f67 * Bolsig+ C2H4(v1) -> C2H4^+
e + C2H4(v2) => e + e + C2H4^+		! f67 * Bolsig+ C2H4(v2) -> C2H4^+
e + C2H4 => e + e + H + C2H3^+		! f68 * Bolsig+ C2H4 -> H C2H3^+
e + C2H4(v1) => e + e + H + C2H3^+		! f68 * Bolsig+ C2H4(v1) -> H C2H3^+
e + C2H4(v2) => e + e + H + C2H3^+		! f68 * Bolsig+ C2H4(v2) -> H C2H3^+
e + C2H4 => e + e + CH + CH3^+		! f69 * Bolsig+ C2H4 -> CH CH3^+
e + C2H4(v1) => e + e + CH + CH3^+		! f69 * Bolsig+ C2H4(v1) -> CH CH3^+
e + C2H4(v2) => e + e + CH + CH3^+		! f69 * Bolsig+ C2H4(v2) -> CH CH3^+
e + C2H4 => e + e + CH2 + CH2^+		! f70 * Bolsig+ C2H4 -> CH2 CH2^+
e + C2H4(v1) => e + e + CH2 + CH2^+		! f70 * Bolsig+ C2H4(v1) -> CH2 CH2^+
e + C2H4(v2) => e + e + CH2 + CH2^+		! f70 * Bolsig+ C2H4(v2) -> CH2 CH2^+
e + C2H4 => e + e + CH3 + CH^+		! f71 * Bolsig+ C2H4 -> CH3 CH^+
e + C2H4(v1) => e + e + CH3 + CH^+		! f71 * Bolsig+ C2H4(v1) -> CH3 CH^+
e + C2H4(v2) => e + e + CH3 + CH^+		! f71 * Bolsig+ C2H4(v2) -> CH3 CH^+
e + C2H3 => e + e + C2H3^+		! f72 * Bolsig+ C2H3 -> C2H3^+
e + C2H3 => e + e + H + C2H2^+		! f73 * Bolsig+ C2H3 -> H C2H2^+
e + C2H3 => e + e + CH + CH2^+		! f74 * Bolsig+ C2H3 -> CH CH2^+
e + C2H3 => e + e + CH2 + CH^+		! f75 * Bolsig+ C2H3 -> CH2 CH^+
e + C2H3 => e + e + C2H2 + H^+		! f76 * Bolsig+ C2H3 -> C2H2 H^+
e + C2H2 => e + e + C2H2^+		! f77 * Bolsig+ C2H2 -> C2H2^+
e + C2H2(v5) => e + e + C2H2^+		! f77 * Bolsig+ C2H2(v5) -> C2H2^+
e + C2H2(v2) => e + e + C2H2^+		! f77 * Bolsig+ C2H2(v2) -> C2H2^+
e + C2H2(v13) => e + e + C2H2^+		! f77 * Bolsig+ C2H2(v13) -> C2H2^+
e + C2H2 => e + e + CH + CH^+		! f78 * Bolsig+ C2H2 -> CH CH^+
e + C2H2(v5) => e + e + CH + CH^+		! f78 * Bolsig+ C2H2(v5) -> CH CH^+
e + C2H2(v2) => e + e + CH + CH^+		! f78 * Bolsig+ C2H2(v2) -> CH CH^+
e + C2H2(v13) => e + e + CH + CH^+		! f78 * Bolsig+ C2H2(v13) -> CH CH^+
e + C3H8 => e + C3H7 + H		! f79 * Bolsig+ C3H8 -> C3H7 H
e + C3H8(v1) => e + C3H7 + H		! f79 * Bolsig+ C3H8(v1) -> C3H7 H
e + C3H8(v2) => e + C3H7 + H		! f79 * Bolsig+ C3H8(v2) -> C3H7 H
e + C3H8 => e + C3H6 + H2		! f80 * Bolsig+ C3H8 -> C3H6 H2
e + C3H8(v1) => e + C3H6 + H2		! f80 * Bolsig+ C3H8(v1) -> C3H6 H2
e + C3H8(v2) => e + C3H6 + H2		! f80 * Bolsig+ C3H8(v2) -> C3H6 H2
e + C3H7 => e + C3H6 + H		! f81 * Bolsig+ C3H7 -> C3H6 H
e + C3H8 => e + e + C3H8^+		! f82 * Bolsig+ C3H8 -> C3H8^+
e + C3H8(v1) => e + e + C3H8^+		! f82 * Bolsig+ C3H8(v1) -> C3H8^+
e + C3H8(v2) => e + e + C3H8^+		! f82 * Bolsig+ C3H8(v2) -> C3H8^+
e + C3H8 => e + e + H + C3H7^+		! f83 * Bolsig+ C3H8 -> H C3H7^+
e + C3H8(v1) => e + e + H + C3H7^+		! f83 * Bolsig+ C3H8(v1) -> H C3H7^+
e + C3H8(v2) => e + e + H + C3H7^+		! f83 * Bolsig+ C3H8(v2) -> H C3H7^+
e + C3H8 => e + e + H2 + C3H6^+		! f84 * Bolsig+ C3H8 -> H2 C3H6^+
e + C3H8(v1) => e + e + H2 + C3H6^+		! f84 * Bolsig+ C3H8(v1) -> H2 C3H6^+
e + C3H8(v2) => e + e + H2 + C3H6^+		! f84 * Bolsig+ C3H8(v2) -> H2 C3H6^+
e + C3H7 => e + e + C3H7^+		! f85 * Bolsig+ C3H7 -> C3H7^+
e + C3H7 => e + e + H + C3H6^+		! f86 * Bolsig+ C3H7 -> H C3H6^+
e + C3H6 => e + e + C3H6^+		! f87 * Bolsig+ C3H6 -> C3H6^+
e + C3H6(v) => e + e + C3H6^+		! f87 * Bolsig+ C3H6(v) -> C3H6^+
e + C3H6 => e + C2H2 + CH4		! f88 * Bolsig+ C3H6 -> C2H2 CH4
e + C3H6(v) => e + C2H2 + CH4		! f88 * Bolsig+ C3H6(v) -> C2H2 CH4
e + C3H6 => e + e + C2H2 + CH4^+		! f89 * Bolsig+ C3H6 -> C2H2 CH4^+
e + C3H6(v) => e + e + C2H2 + CH4^+		! f89 * Bolsig+ C3H6(v) -> C2H2 CH4^+

# Ion Recombination Reaction
e + e + CH^+ => e + CH		! f90 * 1.00d0
e + e + CH2^+ => e + CH2		! f91 * 1.00d0
e + e + CH3^+ => e + CH3		! f92 * 1.00d0
e + e + CH4^+ => e + CH4		! f93 * 1.00d0
e + e + C2H2^+ => e + C2H2		! f94 * 1.00d0
e + e + C2H3^+ => e + C2H3		! f95 * 1.00d0
e + e + C2H4^+ => e + C2H4		! f96 * 1.00d0
e + e + C2H5^+ => e + C2H5		! f97 * 1.00d0
e + e + C2H6^+ => e + C2H6		! f98 * 1.00d0
e + e + C3H6^+ => e + C3H6		! f99 * 1.00d0
e + e + C3H7^+ => e + C3H7		! f100 * 1.00d0
e + e + C3H8^+ => e + C3H8		! f101 * 1.00d0

# Gas Phase Reaction
e + CH4^+ => CH3 + H		! f102 * 1.18d-08 * (300./Tgas)**0.5
e + CH4^+ => CH2 + H + H		! f103 * 2.42d-08 * (300./Tgas)**0.5
e + CH4^+ => CH + H2 + H		! f104 * 1.41d-08 * (300./Tgas)**0.5
e + CH3^+ => CH2 + H		! f105 * 2.25d-08 * (300./Tgas)**0.5
e + CH3^+ => CH + H2		! f106 * 7.88d-09 * (300./Tgas)**0.5
e + CH3^+ => CH + H + H		! f107 * 9.00d-09 * (300./Tgas)**0.5
e + CH3^+ => C + H2 + H		! f108 * 1.69d-08 * (300./Tgas)**0.5
e + CH2^+ => CH + H		! f109 * 1.00d-08 * (300./Tgas)**0.5
e + CH2^+ => C + H2		! f110 * 4.82d-09 * (300./Tgas)**0.5
e + CH2^+ => C + H + H		! f111 * 2.53d-08 * (300./Tgas)**0.5
e + CH^+ => C + H		! f112 * 3.23d-08 * (300./Tgas)**0.42
e + C2H6^+ => C2H5 + H		! f113 * 2.19d-08 * (300./Tgas)**0.71
e + C2H6^+ => C2H4 + H + H		! f114 * 3.36d-08 * (300./Tgas)**0.71
e + C2H5^+ => C2H4 + H		! f115 * 7.70d-09 * (300./Tgas)**0.71
e + C2H5^+ => C2H3 + H + H		! f116 * 1.92d-08 * (300./Tgas)**0.71
e + C2H5^+ => C2H2 + H2 + H		! f117 * 1.60d-08 * (300./Tgas)**0.71
e + C2H5^+ => C2H2 + H + H + H		! f118 * 8.98d-09 * (300./Tgas)**0.71
e + C2H5^+ => CH3 + CH2		! f119 * 9.62d-09 * (300./Tgas)**0.71
e + C2H4^+ => C2H3 + H		! f120 * 8.29d-09 * (300./Tgas)**0.71
e + C2H4^+ => C2H2 + H + H		! f121 * 3.43d-08 * (300./Tgas)**0.71
e + C2H3^+ => C2H2 + H		! f122 * 1.34d-08 * (300./Tgas)**0.71
e + C2H2^+ => CH + CH		! f123 * 4.87d-09 * (300./Tgas)**0.71
e + H2^+ => H + H		! f124 * 3.17d21/(6.022d23 * Te**4.5)
e + H3^+ => H + H2		! f125 * 3.17d21/(6.022d23 * Te**4.5)
H2 + H2^+ => H + H3^+		! f126 * 2.11d-09
C2H6 + CH4^+ => CH4 + H2 + C2H4^+		! f127 * 1.91d-9
C2H6(v24) + CH4^+ => CH4 + H2 + C2H4^+		! f127 * 1.91d-9
C2H6(v13) + CH4^+ => CH4 + H2 + C2H4^+		! f127 * 1.91d-9
C2H4 + CH4^+ => CH3 + C2H5^+		! f128 * 4.23d-10