ELEMENTS
e C H
END

SPECIES
e C CH CH^+ CH2 CH2^+ CH3 CH3^+ CH4 CH4(v13) CH4(v24) CH4^+ C2H2 C2H2(v13) C2H2(v2) C2H2(v5) C2H2^+ C2H3 C2H3^+ C2H4 C2H4(v1) C2H4(v2) C2H4^+ C2H5 C2H5^+
C2H6 C2H6(v13) C2H6(v24) C2H6^+ C3H5 C3H6 C3H6(v) C3H6^+ C3H7 C3H7^+ C3H8 C3H8(v1) C3H8(v2) C3H8^+ C4H9 C4H9H C2H C5H12 H H2 H2^+ H3^+ H^+
END

BOLSIG
CH CH2 CH3 CH4 CH4(v13) CH4(v24) C2H2 C2H2(v13) C2H2(v2) C2H2(v5) C2H3 C2H4 C2H4(v1) C2H4(v2) C2H5 C2H6 C2H6(v13) C2H6(v24) C3H6 C3H6(v) C3H7 C3H8 C3H8(v1) C3H8(v2)
END

REACTIONS
# Gas Constant
$ double precision, parameter :: R = 8.314d-3

# Compensation Parameters
$ double precision, parameter :: f0 = 2.0928d-2
$ double precision, parameter :: f1 = 1.4811d+1
$ double precision, parameter :: f2 = 4.5850d-7
$ double precision, parameter :: f3 = 1.7916d-2
$ double precision, parameter :: f4 = 2.0143d-1
$ double precision, parameter :: f5 = 1.4322d-5
$ double precision, parameter :: f6 = 4.7211d-5
$ double precision, parameter :: f7 = 1.4453d-1
$ double precision, parameter :: f8 = 7.1057d-7
$ double precision, parameter :: f9 = 5.9457d+1
$ double precision, parameter :: f10 = 8.6245d0
$ double precision, parameter :: f11 = 1.3622d-3
$ double precision, parameter :: f12 = 2.0176d-5
$ double precision, parameter :: f13 = 8.5420d+1
$ double precision, parameter :: f14 = 4.5950d+2
$ double precision, parameter :: f15 = 2.3652d-2
$ double precision, parameter :: f16 = 2.0153d+2
$ double precision, parameter :: f17 = 1.3449d-8
$ double precision, parameter :: f18 = 8.9901d-7
$ double precision, parameter :: f19 = 8.6091d-4
$ double precision, parameter :: f20 = 2.0550d+1
$ double precision, parameter :: f21 = 3.7632d-1
$ double precision, parameter :: f22 = 8.2259d+1
$ double precision, parameter :: f23 = 7.9741d-6
$ double precision, parameter :: f24 = 6.0903d-7
$ double precision, parameter :: f25 = 1.8069d-3
$ double precision, parameter :: f26 = 4.3352d-1
$ double precision, parameter :: f27 = 3.6476d-5
$ double precision, parameter :: f28 = 8.7980d-6
$ double precision, parameter :: f29 = 2.2346d-4
$ double precision, parameter :: f30 = 6.8871d-6
$ double precision, parameter :: f31 = 1.7987d-2
$ double precision, parameter :: f32 = 9.0472d-8
$ double precision, parameter :: f33 = 8.3560d-1
$ double precision, parameter :: f34 = 6.4213d-7
$ double precision, parameter :: f35 = 6.4267d-2
$ double precision, parameter :: f36 = 7.4199d-2
$ double precision, parameter :: f37 = 3.6237d-3
$ double precision, parameter :: f38 = 1.8667d-3
$ double precision, parameter :: f39 = 1.4557d-3
$ double precision, parameter :: f40 = 2.0404d-2
$ double precision, parameter :: f41 = 1.6958d+1
$ double precision, parameter :: f42 = 2.2636d-2
$ double precision, parameter :: f43 = 7.9893d-3
$ double precision, parameter :: f44 = 7.2236d-5
$ double precision, parameter :: f45 = 2.1571d+1
$ double precision, parameter :: f46 = 9.5298d+2
$ double precision, parameter :: f47 = 3.0188d-6
$ double precision, parameter :: f48 = 6.0142d-8
$ double precision, parameter :: f49 = 4.6213d-2
$ double precision, parameter :: f50 = 3.5875d-5
$ double precision, parameter :: f51 = 1.1949d+2
$ double precision, parameter :: f52 = 1.7674d-5
$ double precision, parameter :: f53 = 1.4105d-8
$ double precision, parameter :: f54 = 9.0776d-6
$ double precision, parameter :: f55 = 3.6050d-1
$ double precision, parameter :: f56 = 3.4101d0
$ double precision, parameter :: f57 = 4.0214d-4
$ double precision, parameter :: f58 = 4.2564d0
$ double precision, parameter :: f59 = 9.1966d-2
$ double precision, parameter :: f60 = 1.0024d+1
$ double precision, parameter :: f61 = 1.2862d-2
$ double precision, parameter :: f62 = 1.7743d+1
$ double precision, parameter :: f63 = 9.9959d-8
$ double precision, parameter :: f64 = 8.7903d0
$ double precision, parameter :: f65 = 8.0117d+1
$ double precision, parameter :: f66 = 1.2306d-3
$ double precision, parameter :: f67 = 1.5485d-6
$ double precision, parameter :: f68 = 1.8319d-5
$ double precision, parameter :: f69 = 8.6237d-2
$ double precision, parameter :: f70 = 3.4773d-6
$ double precision, parameter :: f71 = 3.3399d-6
$ double precision, parameter :: f72 = 4.5508d-7
$ double precision, parameter :: f73 = 4.3651d+1
$ double precision, parameter :: f74 = 1.0539d+1
$ double precision, parameter :: f75 = 4.1060d-7
$ double precision, parameter :: f76 = 7.2560d-7
$ double precision, parameter :: f77 = 1.5268d-3
$ double precision, parameter :: f78 = 1.8536d-4
$ double precision, parameter :: f79 = 3.3220d-7
$ double precision, parameter :: f80 = 1.3112d-5
$ double precision, parameter :: f81 = 1.0061d+2
$ double precision, parameter :: f82 = 5.5252d-8
$ double precision, parameter :: f83 = 1.2714d+2
$ double precision, parameter :: f84 = 4.0264d+2
$ double precision, parameter :: f85 = 4.0969d-3
$ double precision, parameter :: f86 = 2.3103d-2
$ double precision, parameter :: f87 = 5.6440d0
$ double precision, parameter :: f88 = 1.4979d-8
$ double precision, parameter :: f89 = 2.1409d+2
$ double precision, parameter :: f90 = 1.4902d+1
$ double precision, parameter :: f91 = 8.6350d-7
$ double precision, parameter :: f92 = 6.9574d-4
$ double precision, parameter :: f93 = 3.6460d+1
$ double precision, parameter :: f94 = 1.7389d-4
$ double precision, parameter :: f95 = 9.9932d-6
$ double precision, parameter :: f96 = 4.7232d-8
$ double precision, parameter :: f97 = 4.8826d-5
$ double precision, parameter :: f98 = 3.5052d+2
$ double precision, parameter :: f99 = 1.1638d+1
$ double precision, parameter :: f100 = 2.9853d-2
$ double precision, parameter :: f101 = 1.2184d-3
$ double precision, parameter :: f102 = 2.7383d0
$ double precision, parameter :: f103 = 2.5280d-6
$ double precision, parameter :: f104 = 1.2463d-7
$ double precision, parameter :: f105 = 1.6005d-5
$ double precision, parameter :: f106 = 3.6403d-5
$ double precision, parameter :: f107 = 6.3878d-4
$ double precision, parameter :: f108 = 1.1466d-7
$ double precision, parameter :: f109 = 7.4233d-8
$ double precision, parameter :: f110 = 5.1211d-5
$ double precision, parameter :: f111 = 2.9965d-8
$ double precision, parameter :: f112 = 1.6292d+1
$ double precision, parameter :: f113 = 6.9765d-4
$ double precision, parameter :: f114 = 1.5215d-7
$ double precision, parameter :: f115 = 1.7156d-5
$ double precision, parameter :: f116 = 2.3207d-6
$ double precision, parameter :: f117 = 6.4900d-5
$ double precision, parameter :: f118 = 9.5641d-3
$ double precision, parameter :: f119 = 3.6259d+1
$ double precision, parameter :: f120 = 2.2265d0
$ double precision, parameter :: f121 = 6.3853d-2
$ double precision, parameter :: f122 = 5.4109d-3
$ double precision, parameter :: f123 = 6.3137d-7
$ double precision, parameter :: f124 = 3.7507d-4
$ double precision, parameter :: f125 = 1.6518d+2
$ double precision, parameter :: f126 = 1.6577d-2
$ double precision, parameter :: f127 = 9.7473d-4
$ double precision, parameter :: f128 = 2.4281d-8
$ double precision, parameter :: f129 = 2.0574d+2
$ double precision, parameter :: f130 = 2.9170d+1
$ double precision, parameter :: f131 = 2.9919d-8
$ double precision, parameter :: f132 = 1.8059d-5
$ double precision, parameter :: f133 = 9.7147d-3
$ double precision, parameter :: f134 = 5.9065d-5
$ double precision, parameter :: f135 = 1.5086d-8
$ double precision, parameter :: f136 = 7.0036d0
$ double precision, parameter :: f137 = 2.1401d-3
$ double precision, parameter :: f138 = 5.3692d-3
$ double precision, parameter :: f139 = 3.7658d0
$ double precision, parameter :: f140 = 5.7409d-2
$ double precision, parameter :: f141 = 4.3531d0
$ double precision, parameter :: f142 = 1.4244d-4
$ double precision, parameter :: f143 = 1.6935d+1
$ double precision, parameter :: f144 = 2.3077d-5
$ double precision, parameter :: f145 = 6.2793d-5
$ double precision, parameter :: f146 = 1.9561d-8
$ double precision, parameter :: f147 = 6.2948d-7
$ double precision, parameter :: f148 = 3.7705d-1
$ double precision, parameter :: f149 = 3.4130d-6
$ double precision, parameter :: f150 = 2.6133d+1
$ double precision, parameter :: f151 = 1.6738d-8
$ double precision, parameter :: f152 = 2.1333d-2
$ double precision, parameter :: f153 = 1.1409d-1
$ double precision, parameter :: f154 = 7.7744d-7
$ double precision, parameter :: f155 = 2.1607d0
$ double precision, parameter :: f156 = 6.5903d+2
$ double precision, parameter :: f157 = 6.3344d-3
$ double precision, parameter :: f158 = 3.4073d-7
$ double precision, parameter :: f159 = 2.6417d-5
$ double precision, parameter :: f160 = 6.8969d+1
$ double precision, parameter :: f161 = 6.4695d0
$ double precision, parameter :: f162 = 1.8177d-3
$ double precision, parameter :: f163 = 5.5069d-2
$ double precision, parameter :: f164 = 1.9399d-7
$ double precision, parameter :: f165 = 2.5938d-7
$ double precision, parameter :: f166 = 4.1430d-8
$ double precision, parameter :: f167 = 3.7238d-1
$ double precision, parameter :: f168 = 2.2388d0
$ double precision, parameter :: f169 = 1.0420d0
$ double precision, parameter :: f170 = 5.1014d-2
$ double precision, parameter :: f171 = 2.3364d-3
$ double precision, parameter :: f172 = 3.6510d+2
$ double precision, parameter :: f173 = 4.1372d-6
$ double precision, parameter :: f174 = 1.7292d+1
$ double precision, parameter :: f175 = 2.4587d-3
$ double precision, parameter :: f176 = 1.1494d-2
$ double precision, parameter :: f177 = 1.7104d-4
$ double precision, parameter :: f178 = 8.6917d-8
$ double precision, parameter :: f179 = 8.7340d-1
$ double precision, parameter :: f180 = 5.5025d-4
$ double precision, parameter :: f181 = 2.8764d-5
$ double precision, parameter :: f182 = 1.0216d-1
$ double precision, parameter :: f183 = 3.5534d-5
$ double precision, parameter :: f184 = 1.9195d-3
$ double precision, parameter :: f185 = 2.1619d-2
$ double precision, parameter :: f186 = 9.2237d+1
$ double precision, parameter :: f187 = 6.0556d-6
$ double precision, parameter :: f188 = 1.9537d-5
$ double precision, parameter :: f189 = 2.9299d-8
$ double precision, parameter :: f190 = 1.1235d+1
$ double precision, parameter :: f191 = 4.7836d-7
$ double precision, parameter :: f192 = 3.5530d-4
$ double precision, parameter :: f193 = 2.5127d-7
$ double precision, parameter :: f194 = 4.2384d-5
$ double precision, parameter :: f195 = 7.0080d-5
$ double precision, parameter :: f196 = 3.1287d-1
$ double precision, parameter :: f197 = 3.1832d+1
$ double precision, parameter :: f198 = 1.1828d+2
$ double precision, parameter :: f199 = 1.4816d-4
$ double precision, parameter :: f200 = 2.4401d-7
$ double precision, parameter :: f201 = 3.5451d-7
$ double precision, parameter :: f202 = 3.5068d-8
$ double precision, parameter :: f203 = 4.6983d-6
$ double precision, parameter :: f204 = 1.2274d-8
$ double precision, parameter :: f205 = 1.9456d-2
$ double precision, parameter :: f206 = 2.3295d+2
$ double precision, parameter :: f207 = 2.0960d+2
$ double precision, parameter :: f208 = 1.2723d-2
$ double precision, parameter :: f209 = 6.7849d-7
$ double precision, parameter :: f210 = 3.9332d+2
$ double precision, parameter :: f211 = 2.7975d-1
$ double precision, parameter :: f212 = 6.8643d0
$ double precision, parameter :: f213 = 4.5457d-4
$ double precision, parameter :: f214 = 4.3158d-3
$ double precision, parameter :: f215 = 2.1517d-6
$ double precision, parameter :: f216 = 8.2255d-7
$ double precision, parameter :: f217 = 8.0718d-1
$ double precision, parameter :: f218 = 3.6014d-7
$ double precision, parameter :: f219 = 3.2370d-5
$ double precision, parameter :: f220 = 7.4923d-8
$ double precision, parameter :: f221 = 4.1707d-8
$ double precision, parameter :: f222 = 2.1739d+2
$ double precision, parameter :: f223 = 2.9113d0
$ double precision, parameter :: f224 = 7.5004d-1
$ double precision, parameter :: f225 = 2.3324d-6
$ double precision, parameter :: f226 = 1.0692d+1
$ double precision, parameter :: f227 = 3.8303d-7
$ double precision, parameter :: f228 = 2.6744d-4
$ double precision, parameter :: f229 = 3.1784d-7
$ double precision, parameter :: f230 = 1.0942d0
$ double precision, parameter :: f231 = 1.4402d-4
$ double precision, parameter :: f232 = 3.2329d-2
$ double precision, parameter :: f233 = 8.1157d-4
$ double precision, parameter :: f234 = 7.0699d0
$ double precision, parameter :: f235 = 2.2975d+2
$ double precision, parameter :: f236 = 3.8188d-1
$ double precision, parameter :: f237 = 2.3078d+1
$ double precision, parameter :: f238 = 8.1624d-5
$ double precision, parameter :: f239 = 2.6884d0
$ double precision, parameter :: f240 = 9.7766d-2
$ double precision, parameter :: f241 = 4.3400d-1
$ double precision, parameter :: f242 = 4.2086d-3
$ double precision, parameter :: f243 = 2.6918d-1
$ double precision, parameter :: f244 = 8.9247d-2
$ double precision, parameter :: f245 = 3.5833d-7
$ double precision, parameter :: f246 = 8.2019d-1
$ double precision, parameter :: f247 = 2.7244d-5
$ double precision, parameter :: f248 = 4.8350d-4
$ double precision, parameter :: f249 = 3.1902d+1
$ double precision, parameter :: f250 = 9.0407d-7
$ double precision, parameter :: f251 = 5.8553d+1
$ double precision, parameter :: f252 = 1.6116d-4
$ double precision, parameter :: f253 = 1.0554d-3
$ double precision, parameter :: f254 = 8.7048d-7
$ double precision, parameter :: f255 = 3.4484d-1
$ double precision, parameter :: f256 = 1.8972d-7
$ double precision, parameter :: f257 = 9.0320d-5
$ double precision, parameter :: f258 = 2.8860d-5
$ double precision, parameter :: f259 = 5.1908d-6
$ double precision, parameter :: f260 = 3.6529d-4
$ double precision, parameter :: f261 = 8.4965d-8
$ double precision, parameter :: f262 = 3.4827d-7
$ double precision, parameter :: f263 = 1.2718d-4
$ double precision, parameter :: f264 = 4.7569d-1
$ double precision, parameter :: f265 = 7.2506d0
$ double precision, parameter :: f266 = 3.2881d-7
$ double precision, parameter :: f267 = 1.5287d-2
$ double precision, parameter :: f268 = 6.3835d+2
$ double precision, parameter :: f269 = 1.5488d-1
$ double precision, parameter :: f270 = 1.4428d-4
$ double precision, parameter :: f271 = 1.4622d-6
$ double precision, parameter :: f272 = 2.6787d-1
$ double precision, parameter :: f273 = 1.2723d-2
$ double precision, parameter :: f274 = 1.8974d+2
$ double precision, parameter :: f275 = 6.5444d-2
$ double precision, parameter :: f276 = 9.0500d+2
$ double precision, parameter :: f277 = 2.1950d+2
$ double precision, parameter :: f278 = 2.1315d+2
$ double precision, parameter :: f279 = 3.8303d-6
$ double precision, parameter :: f280 = 1.7164d-2
$ double precision, parameter :: f281 = 4.0245d-6
$ double precision, parameter :: f282 = 6.0694d-5
$ double precision, parameter :: f283 = 1.5774d0
$ double precision, parameter :: f284 = 1.4691d+2
$ double precision, parameter :: f285 = 1.1316d-3
$ double precision, parameter :: f286 = 4.3893d-8
$ double precision, parameter :: f287 = 1.1536d-8
$ double precision, parameter :: f288 = 2.2458d-3
$ double precision, parameter :: f289 = 4.3410d-6
$ double precision, parameter :: f290 = 3.8936d-4
$ double precision, parameter :: f291 = 5.1833d+2
$ double precision, parameter :: f292 = 6.9462d-3
$ double precision, parameter :: f293 = 1.4149d-1
$ double precision, parameter :: f294 = 8.2530d0
$ double precision, parameter :: f295 = 2.3734d-2
$ double precision, parameter :: f296 = 2.0193d-6
$ double precision, parameter :: f297 = 3.6815d-5
$ double precision, parameter :: f298 = 4.4883d+1
$ double precision, parameter :: f299 = 1.3888d-7
$ double precision, parameter :: f300 = 3.0107d-7
$ double precision, parameter :: f301 = 7.1203d-4
$ double precision, parameter :: f302 = 1.0791d+2
$ double precision, parameter :: f303 = 8.0195d+1
$ double precision, parameter :: f304 = 1.1702d-2
$ double precision, parameter :: f305 = 5.9214d-5
$ double precision, parameter :: f306 = 1.0335d-1
$ double precision, parameter :: f307 = 8.0343d-3
$ double precision, parameter :: f308 = 4.1552d-4
$ double precision, parameter :: f309 = 1.1635d+1
$ double precision, parameter :: f310 = 1.1481d+2
$ double precision, parameter :: f311 = 2.3722d-1
$ double precision, parameter :: f312 = 1.7824d0
$ double precision, parameter :: f313 = 6.4996d+1
$ double precision, parameter :: f314 = 2.3494d0
$ double precision, parameter :: f315 = 2.5222d-8

# Electron Collision Reaction
e + CH4 => e + CH4(v24)		! f0 * Bolsig+ CH4 -> CH4(v24)
e + CH4 => e + CH4(v13)		! f1 * Bolsig+ CH4 -> CH4(v13)
e + C2H6 => e + C2H6(v24)		! f2 * Bolsig+ C2H6 -> C2H6(v24)
e + C2H6 => e + C2H6(v13)		! f3 * Bolsig+ C2H6 -> C2H6(v13)
e + C2H4 => e + C2H4(v1)		! f4 * Bolsig+ C2H4 -> C2H4(v1)
e + C2H4 => e + C2H4(v2)		! f5 * Bolsig+ C2H4 -> C2H4(v2)
e + C2H2 => e + C2H2(v5)		! f6 * Bolsig+ C2H2 -> C2H2(v5)
e + C2H2 => e + C2H2(v2)		! f7 * Bolsig+ C2H2 -> C2H2(v2)
e + C2H2 => e + C2H2(v13)		! f8 * Bolsig+ C2H2 -> C2H2(v13)
e + C3H8 => e + C3H8(v1)		! f9 * Bolsig+ C3H8 -> C3H8(v1)
e + C3H8 => e + C3H8(v2)		! f10 * Bolsig+ C3H8 -> C3H8(v2)
e + C3H6 => e + C3H6(v)		! f11 * Bolsig+ C3H6 -> C3H6(v)
e + CH4 => e + CH3 + H		! f12 * Bolsig+ CH4 -> CH3 H
e + CH4(v24) => e + CH3 + H		! f12 * Bolsig+ CH4(v24) -> CH3 H
e + CH4(v13) => e + CH3 + H		! f12 * Bolsig+ CH4(v13) -> CH3 H
e + CH4 => e + CH2 + H2		! f13 * Bolsig+ CH4 -> CH2 H2
e + CH4(v24) => e + CH2 + H2		! f13 * Bolsig+ CH4(v24) -> CH2 H2
e + CH4(v13) => e + CH2 + H2		! f13 * Bolsig+ CH4(v13) -> CH2 H2
e + CH4 => e + CH + H2 + H		! f14 * Bolsig+ CH4 -> CH H2 H
e + CH4(v24) => e + CH + H2 + H		! f14 * Bolsig+ CH4(v24) -> CH H2 H
e + CH4(v13) => e + CH + H2 + H		! f14 * Bolsig+ CH4(v13) -> CH H2 H
e + CH4 => e + C + H2 + H2		! f15 * Bolsig+ CH4 -> C H2 H2
e + CH4(v24) => e + C + H2 + H2		! f15 * Bolsig+ CH4(v24) -> C H2 H2
e + CH4(v13) => e + C + H2 + H2		! f15 * Bolsig+ CH4(v13) -> C H2 H2
e + CH3 => e + CH2 + H		! f16 * Bolsig+ CH3 -> CH2 H
e + CH3 => e + CH + H2		! f17 * Bolsig+ CH3 -> CH H2
e + CH3 => e + C + H2 + H		! f18 * Bolsig+ CH3 -> C H2 H
e + CH2 => e + CH + H		! f19 * Bolsig+ CH2 -> CH H
e + CH2 => e + C + H2		! f20 * Bolsig+ CH2 -> C H2
e + CH2 => e + C + H + H		! f21 * Bolsig+ CH2 -> C H H
e + CH => e + C + H		! f22 * Bolsig+ CH -> C H
e + CH4 => e + e + CH4^+		! f23 * Bolsig+ CH4 -> CH4^+
e + CH4(v24) => e + e + CH4^+		! f23 * Bolsig+ CH4(v24) -> CH4^+
e + CH4(v13) => e + e + CH4^+		! f23 * Bolsig+ CH4(v13) -> CH4^+
e + CH4 => e + e + H + CH3^+		! f24 * Bolsig+ CH4 -> H CH3^+
e + CH4(v24) => e + e + H + CH3^+		! f24 * Bolsig+ CH4(v24) -> H CH3^+
e + CH4(v13) => e + e + H + CH3^+		! f24 * Bolsig+ CH4(v13) -> H CH3^+
e + CH4 => e + e + H2 + CH2^+		! f25 * Bolsig+ CH4 -> H2 CH2^+
e + CH4(v24) => e + e + H2 + CH2^+		! f25 * Bolsig+ CH4(v24) -> H2 CH2^+
e + CH4(v13) => e + e + H2 + CH2^+		! f25 * Bolsig+ CH4(v13) -> H2 CH2^+
e + CH4 => e + e + H2 + H + CH^+		! f26 * Bolsig+ CH4 -> H2 H CH^+
e + CH4(v24) => e + e + H2 + H + CH^+		! f26 * Bolsig+ CH4(v24) -> H2 H CH^+
e + CH4(v13) => e + e + H2 + H + CH^+		! f26 * Bolsig+ CH4(v13) -> H2 H CH^+
e + CH3 => e + e + CH3^+		! f27 * Bolsig+ CH3 -> CH3^+
e + CH3 => e + e + H + CH2^+		! f28 * Bolsig+ CH3 -> H CH2^+
e + CH3 => e + e + H2 + CH^+		! f29 * Bolsig+ CH3 -> H2 CH^+
e + CH2 => e + e + CH2^+		! f30 * Bolsig+ CH2 -> CH2^+
e + CH2 => e + e + H + CH^+		! f31 * Bolsig+ CH2 -> H CH^+
e + CH => e + e + CH^+		! f32 * Bolsig+ CH -> CH^+
e + C2H6 => e + C2H5 + H		! f33 * Bolsig+ C2H6 -> C2H5 H
e + C2H6(v24) => e + C2H5 + H		! f33 * Bolsig+ C2H6(v24) -> C2H5 H
e + C2H6(v13) => e + C2H5 + H		! f33 * Bolsig+ C2H6(v13) -> C2H5 H
e + C2H6 => e + C2H4 + H2		! f34 * Bolsig+ C2H6 -> C2H4 H2
e + C2H6(v24) => e + C2H4 + H2		! f34 * Bolsig+ C2H6(v24) -> C2H4 H2
e + C2H6(v13) => e + C2H4 + H2		! f34 * Bolsig+ C2H6(v13) -> C2H4 H2
e + C2H6 => e + C2H3 + H2 + H		! f35 * Bolsig+ C2H6 -> C2H3 H2 H
e + C2H6(v24) => e + C2H3 + H2 + H		! f35 * Bolsig+ C2H6(v24) -> C2H3 H2 H
e + C2H6(v13) => e + C2H3 + H2 + H		! f35 * Bolsig+ C2H6(v13) -> C2H3 H2 H
e + C2H6 => e + C2H2 + H2 + H2		! f36 * Bolsig+ C2H6 -> C2H2 H2 H2
e + C2H6(v24) => e + C2H2 + H2 + H2		! f36 * Bolsig+ C2H6(v24) -> C2H2 H2 H2
e + C2H6(v13) => e + C2H2 + H2 + H2		! f36 * Bolsig+ C2H6(v13) -> C2H2 H2 H2
e + C2H6 => e + CH4 + CH2		! f37 * Bolsig+ C2H6 -> CH4 CH2
e + C2H6(v24) => e + CH4 + CH2		! f37 * Bolsig+ C2H6(v24) -> CH4 CH2
e + C2H6(v13) => e + CH4 + CH2		! f37 * Bolsig+ C2H6(v13) -> CH4 CH2
e + C2H6 => e + CH3 + CH3		! f38 * Bolsig+ C2H6 -> CH3 CH3
e + C2H6(v24) => e + CH3 + CH3		! f38 * Bolsig+ C2H6(v24) -> CH3 CH3
e + C2H6(v13) => e + CH3 + CH3		! f38 * Bolsig+ C2H6(v13) -> CH3 CH3
e + C2H5 => e + C2H4 + H		! f39 * Bolsig+ C2H5 -> C2H4 H
e + C2H5 => e + C2H3 + H2		! f40 * Bolsig+ C2H5 -> C2H3 H2
e + C2H5 => e + C2H3 + H + H		! f41 * Bolsig+ C2H5 -> C2H3 H H
e + C2H5 => e + C2H2 + H2 + H		! f42 * Bolsig+ C2H5 -> C2H2 H2 H
e + C2H5 => e + CH4 + CH		! f43 * Bolsig+ C2H5 -> CH4 CH
e + C2H5 => e + CH3 + CH2		! f44 * Bolsig+ C2H5 -> CH3 CH2
e + C2H4 => e + C2H3 + H		! f45 * Bolsig+ C2H4 -> C2H3 H
e + C2H4(v1) => e + C2H3 + H		! f45 * Bolsig+ C2H4(v1) -> C2H3 H
e + C2H4(v2) => e + C2H3 + H		! f45 * Bolsig+ C2H4(v2) -> C2H3 H
e + C2H4 => e + C2H2 + H2		! f46 * Bolsig+ C2H4 -> C2H2 H2
e + C2H4(v1) => e + C2H2 + H2		! f46 * Bolsig+ C2H4(v1) -> C2H2 H2
e + C2H4(v2) => e + C2H2 + H2		! f46 * Bolsig+ C2H4(v2) -> C2H2 H2
e + C2H4 => e + C2H2 + H + H		! f47 * Bolsig+ C2H4 -> C2H2 H H
e + C2H4(v1) => e + C2H2 + H + H		! f47 * Bolsig+ C2H4(v1) -> C2H2 H H
e + C2H4(v2) => e + C2H2 + H + H		! f47 * Bolsig+ C2H4(v2) -> C2H2 H H
e + C2H4 => e + CH3 + CH		! f48 * Bolsig+ C2H4 -> CH3 CH
e + C2H4(v1) => e + CH3 + CH		! f48 * Bolsig+ C2H4(v1) -> CH3 CH
e + C2H4(v2) => e + CH3 + CH		! f48 * Bolsig+ C2H4(v2) -> CH3 CH
e + C2H4 => e + CH2 + CH2		! f49 * Bolsig+ C2H4 -> CH2 CH2
e + C2H4(v1) => e + CH2 + CH2		! f49 * Bolsig+ C2H4(v1) -> CH2 CH2
e + C2H4(v2) => e + CH2 + CH2		! f49 * Bolsig+ C2H4(v2) -> CH2 CH2
e + C2H3 => e + C2H2 + H		! f50 * Bolsig+ C2H3 -> C2H2 H
e + C2H3 => e + CH2 + CH		! f51 * Bolsig+ C2H3 -> CH2 CH
e + C2H2 => e + CH + CH		! f52 * Bolsig+ C2H2 -> CH CH
e + C2H2(v5) => e + CH + CH		! f52 * Bolsig+ C2H2(v5) -> CH CH
e + C2H2(v2) => e + CH + CH		! f52 * Bolsig+ C2H2(v2) -> CH CH
e + C2H2(v13) => e + CH + CH		! f52 * Bolsig+ C2H2(v13) -> CH CH
e + C2H6 => e + e + C2H6^+		! f53 * Bolsig+ C2H6 -> C2H6^+
e + C2H6(v24) => e + e + C2H6^+		! f53 * Bolsig+ C2H6(v24) -> C2H6^+
e + C2H6(v13) => e + e + C2H6^+		! f53 * Bolsig+ C2H6(v13) -> C2H6^+
e + C2H6 => e + e + H + C2H5^+		! f54 * Bolsig+ C2H6 -> H C2H5^+
e + C2H6(v24) => e + e + H + C2H5^+		! f54 * Bolsig+ C2H6(v24) -> H C2H5^+
e + C2H6(v13) => e + e + H + C2H5^+		! f54 * Bolsig+ C2H6(v13) -> H C2H5^+
e + C2H6 => e + e + H2 + C2H4^+		! f55 * Bolsig+ C2H6 -> H2 C2H4^+
e + C2H6(v24) => e + e + H2 + C2H4^+		! f55 * Bolsig+ C2H6(v24) -> H2 C2H4^+
e + C2H6(v13) => e + e + H2 + C2H4^+		! f55 * Bolsig+ C2H6(v13) -> H2 C2H4^+
e + C2H6 => e + e + H2 + H + C2H3^+		! f56 * Bolsig+ C2H6 -> H2 H C2H3^+
e + C2H6(v24) => e + e + H2 + H + C2H3^+		! f56 * Bolsig+ C2H6(v24) -> H2 H C2H3^+
e + C2H6(v13) => e + e + H2 + H + C2H3^+		! f56 * Bolsig+ C2H6(v13) -> H2 H C2H3^+
e + C2H6 => e + e + H2 + H2 + C2H2^+		! f57 * Bolsig+ C2H6 -> H2 H2 C2H2^+
e + C2H6(v24) => e + e + H2 + H2 + C2H2^+		! f57 * Bolsig+ C2H6(v24) -> H2 H2 C2H2^+
e + C2H6(v13) => e + e + H2 + H2 + C2H2^+		! f57 * Bolsig+ C2H6(v13) -> H2 H2 C2H2^+
e + C2H6 => e + e + CH3 + CH3^+		! f58 * Bolsig+ C2H6 -> CH3 CH3^+
e + C2H6(v24) => e + e + CH3 + CH3^+		! f58 * Bolsig+ C2H6(v24) -> CH3 CH3^+
e + C2H6(v13) => e + e + CH3 + CH3^+		! f58 * Bolsig+ C2H6(v13) -> CH3 CH3^+
e + C2H6 => e + e + CH4 + CH2^+		! f59 * Bolsig+ C2H6 -> CH4 CH2^+
e + C2H6(v24) => e + e + CH4 + CH2^+		! f59 * Bolsig+ C2H6(v24) -> CH4 CH2^+
e + C2H6(v13) => e + e + CH4 + CH2^+		! f59 * Bolsig+ C2H6(v13) -> CH4 CH2^+
e + C2H5 => e + e + C2H5^+		! f60 * Bolsig+ C2H5 -> C2H5^+
e + C2H5 => e + e + H + C2H4^+		! f61 * Bolsig+ C2H5 -> H C2H4^+
e + C2H5 => e + e + H2 + C2H3^+		! f62 * Bolsig+ C2H5 -> H2 C2H3^+
e + C2H5 => e + e + H2 + H + C2H2^+		! f63 * Bolsig+ C2H5 -> H2 H C2H2^+
e + C2H5 => e + e + CH2 + CH3^+		! f64 * Bolsig+ C2H5 -> CH2 CH3^+
e + C2H5 => e + e + CH3 + CH2^+		! f65 * Bolsig+ C2H5 -> CH3 CH2^+
e + C2H5 => e + e + CH4 + CH^+		! f66 * Bolsig+ C2H5 -> CH4 CH^+
e + C2H4 => e + e + C2H4^+		! f67 * Bolsig+ C2H4 -> C2H4^+
e + C2H4(v1) => e + e + C2H4^+		! f67 * Bolsig+ C2H4(v1) -> C2H4^+
e + C2H4(v2) => e + e + C2H4^+		! f67 * Bolsig+ C2H4(v2) -> C2H4^+
e + C2H4 => e + e + H + C2H3^+		! f68 * Bolsig+ C2H4 -> H C2H3^+
e + C2H4(v1) => e + e + H + C2H3^+		! f68 * Bolsig+ C2H4(v1) -> H C2H3^+
e + C2H4(v2) => e + e + H + C2H3^+		! f68 * Bolsig+ C2H4(v2) -> H C2H3^+
e + C2H4 => e + e + CH + CH3^+		! f69 * Bolsig+ C2H4 -> CH CH3^+
e + C2H4(v1) => e + e + CH + CH3^+		! f69 * Bolsig+ C2H4(v1) -> CH CH3^+
e + C2H4(v2) => e + e + CH + CH3^+		! f69 * Bolsig+ C2H4(v2) -> CH CH3^+
e + C2H4 => e + e + CH2 + CH2^+		! f70 * Bolsig+ C2H4 -> CH2 CH2^+
e + C2H4(v1) => e + e + CH2 + CH2^+		! f70 * Bolsig+ C2H4(v1) -> CH2 CH2^+
e + C2H4(v2) => e + e + CH2 + CH2^+		! f70 * Bolsig+ C2H4(v2) -> CH2 CH2^+
e + C2H4 => e + e + CH3 + CH^+		! f71 * Bolsig+ C2H4 -> CH3 CH^+
e + C2H4(v1) => e + e + CH3 + CH^+		! f71 * Bolsig+ C2H4(v1) -> CH3 CH^+
e + C2H4(v2) => e + e + CH3 + CH^+		! f71 * Bolsig+ C2H4(v2) -> CH3 CH^+
e + C2H3 => e + e + C2H3^+		! f72 * Bolsig+ C2H3 -> C2H3^+
e + C2H3 => e + e + H + C2H2^+		! f73 * Bolsig+ C2H3 -> H C2H2^+
e + C2H3 => e + e + CH + CH2^+		! f74 * Bolsig+ C2H3 -> CH CH2^+
e + C2H3 => e + e + CH2 + CH^+		! f75 * Bolsig+ C2H3 -> CH2 CH^+
e + C2H3 => e + e + C2H2 + H^+		! f76 * Bolsig+ C2H3 -> C2H2 H^+
e + C2H2 => e + e + C2H2^+		! f77 * Bolsig+ C2H2 -> C2H2^+
e + C2H2(v5) => e + e + C2H2^+		! f77 * Bolsig+ C2H2(v5) -> C2H2^+
e + C2H2(v2) => e + e + C2H2^+		! f77 * Bolsig+ C2H2(v2) -> C2H2^+
e + C2H2(v13) => e + e + C2H2^+		! f77 * Bolsig+ C2H2(v13) -> C2H2^+
e + C2H2 => e + e + CH + CH^+		! f78 * Bolsig+ C2H2 -> CH CH^+
e + C2H2(v5) => e + e + CH + CH^+		! f78 * Bolsig+ C2H2(v5) -> CH CH^+
e + C2H2(v2) => e + e + CH + CH^+		! f78 * Bolsig+ C2H2(v2) -> CH CH^+
e + C2H2(v13) => e + e + CH + CH^+		! f78 * Bolsig+ C2H2(v13) -> CH CH^+
e + C3H8 => e + C3H7 + H		! f79 * Bolsig+ C3H8 -> C3H7 H
e + C3H8(v1) => e + C3H7 + H		! f79 * Bolsig+ C3H8(v1) -> C3H7 H
e + C3H8(v2) => e + C3H7 + H		! f79 * Bolsig+ C3H8(v2) -> C3H7 H
e + C3H8 => e + C3H6 + H2		! f80 * Bolsig+ C3H8 -> C3H6 H2
e + C3H8(v1) => e + C3H6 + H2		! f80 * Bolsig+ C3H8(v1) -> C3H6 H2
e + C3H8(v2) => e + C3H6 + H2		! f80 * Bolsig+ C3H8(v2) -> C3H6 H2
e + C3H7 => e + C3H6 + H		! f81 * Bolsig+ C3H7 -> C3H6 H
e + C3H8 => e + e + C3H8^+		! f82 * Bolsig+ C3H8 -> C3H8^+
e + C3H8(v1) => e + e + C3H8^+		! f82 * Bolsig+ C3H8(v1) -> C3H8^+
e + C3H8(v2) => e + e + C3H8^+		! f82 * Bolsig+ C3H8(v2) -> C3H8^+
e + C3H8 => e + e + H + C3H7^+		! f83 * Bolsig+ C3H8 -> H C3H7^+
e + C3H8(v1) => e + e + H + C3H7^+		! f83 * Bolsig+ C3H8(v1) -> H C3H7^+
e + C3H8(v2) => e + e + H + C3H7^+		! f83 * Bolsig+ C3H8(v2) -> H C3H7^+
e + C3H8 => e + e + H2 + C3H6^+		! f84 * Bolsig+ C3H8 -> H2 C3H6^+
e + C3H8(v1) => e + e + H2 + C3H6^+		! f84 * Bolsig+ C3H8(v1) -> H2 C3H6^+
e + C3H8(v2) => e + e + H2 + C3H6^+		! f84 * Bolsig+ C3H8(v2) -> H2 C3H6^+
e + C3H7 => e + e + C3H7^+		! f85 * Bolsig+ C3H7 -> C3H7^+
e + C3H7 => e + e + H + C3H6^+		! f86 * Bolsig+ C3H7 -> H C3H6^+
e + C3H6 => e + e + C3H6^+		! f87 * Bolsig+ C3H6 -> C3H6^+
e + C3H6(v) => e + e + C3H6^+		! f87 * Bolsig+ C3H6(v) -> C3H6^+
e + C3H6 => e + C2H2 + CH4		! f88 * Bolsig+ C3H6 -> C2H2 CH4
e + C3H6(v) => e + C2H2 + CH4		! f88 * Bolsig+ C3H6(v) -> C2H2 CH4
e + C3H6 => e + e + C2H2 + CH4^+		! f89 * Bolsig+ C3H6 -> C2H2 CH4^+
e + C3H6(v) => e + e + C2H2 + CH4^+		! f89 * Bolsig+ C3H6(v) -> C2H2 CH4^+

# Ion Recombination Reaction
e + e + CH^+ => e + CH		! f90 * 1.00d0
e + e + CH2^+ => e + CH2		! f91 * 1.00d0
e + e + CH3^+ => e + CH3		! f92 * 1.00d0
e + e + CH4^+ => e + CH4		! f93 * 1.00d0
e + e + C2H2^+ => e + C2H2		! f94 * 1.00d0
e + e + C2H3^+ => e + C2H3		! f95 * 1.00d0
e + e + C2H4^+ => e + C2H4		! f96 * 1.00d0
e + e + C2H5^+ => e + C2H5		! f97 * 1.00d0
e + e + C2H6^+ => e + C2H6		! f98 * 1.00d0
e + e + C3H6^+ => e + C3H6		! f99 * 1.00d0
e + e + C3H7^+ => e + C3H7		! f100 * 1.00d0
e + e + C3H8^+ => e + C3H8		! f101 * 1.00d0

# Gas Phase Reaction
e + CH4^+ => CH3 + H		! f102 * 1.18d-08 * (300./Tgas)**0.5
e + CH4^+ => CH2 + H + H		! f103 * 2.42d-08 * (300./Tgas)**0.5
e + CH4^+ => CH + H2 + H		! f104 * 1.41d-08 * (300./Tgas)**0.5
e + CH3^+ => CH2 + H		! f105 * 2.25d-08 * (300./Tgas)**0.5
e + CH3^+ => CH + H2		! f106 * 7.88d-09 * (300./Tgas)**0.5
e + CH3^+ => CH + H + H		! f107 * 9.00d-09 * (300./Tgas)**0.5
e + CH3^+ => C + H2 + H		! f108 * 1.69d-08 * (300./Tgas)**0.5
e + CH2^+ => CH + H		! f109 * 1.00d-08 * (300./Tgas)**0.5
e + CH2^+ => C + H2		! f110 * 4.82d-09 * (300./Tgas)**0.5
e + CH2^+ => C + H + H		! f111 * 2.53d-08 * (300./Tgas)**0.5
e + CH^+ => C + H		! f112 * 3.23d-08 * (300./Tgas)**0.42
e + C2H6^+ => C2H5 + H		! f113 * 2.19d-08 * (300./Tgas)**0.71
e + C2H6^+ => C2H4 + H + H		! f114 * 3.36d-08 * (300./Tgas)**0.71
e + C2H5^+ => C2H4 + H		! f115 * 7.70d-09 * (300./Tgas)**0.71
e + C2H5^+ => C2H3 + H + H		! f116 * 1.92d-08 * (300./Tgas)**0.71
e + C2H5^+ => C2H2 + H2 + H		! f117 * 1.60d-08 * (300./Tgas)**0.71
e + C2H5^+ => C2H2 + H + H + H		! f118 * 8.98d-09 * (300./Tgas)**0.71
e + C2H5^+ => CH3 + CH2		! f119 * 9.62d-09 * (300./Tgas)**0.71
e + C2H4^+ => C2H3 + H		! f120 * 8.29d-09 * (300./Tgas)**0.71
e + C2H4^+ => C2H2 + H + H		! f121 * 3.43d-08 * (300./Tgas)**0.71
e + C2H3^+ => C2H2 + H		! f122 * 1.34d-08 * (300./Tgas)**0.71
e + C2H2^+ => CH + CH		! f123 * 4.87d-09 * (300./Tgas)**0.71
e + H2^+ => H + H		! f124 * 3.17d21/(6.022d23 * Te**4.5)
e + H3^+ => H + H2		! f125 * 3.17d21/(6.022d23 * Te**4.5)
H2 + H2^+ => H + H3^+		! f126 * 2.11d-09
C2H6 + CH4^+ => CH4 + H2 + C2H4^+		! f127 * 1.91d-9
C2H6(v24) + CH4^+ => CH4 + H2 + C2H4^+		! f127 * 1.91d-9
C2H6(v13) + CH4^+ => CH4 + H2 + C2H4^+		! f127 * 1.91d-9
C2H4 + CH4^+ => CH3 + C2H5^+		! f128 * 4.23d-10