ELEMENTS
e C H
END

SPECIES
e C CH CH^+ CH2 CH2^+ CH3 CH3^+ CH4 CH4(v13) CH4(v24) CH4^+ C2H2 C2H2(v13) C2H2(v2) C2H2(v5) C2H2^+ C2H3 C2H3^+ C2H4 C2H4(v1) C2H4(v2) C2H4^+ C2H5 C2H5^+
C2H6 C2H6(v13) C2H6(v24) C2H6^+ C3H5 C3H6 C3H6(v) C3H6^+ C3H7 C3H7^+ C3H8 C3H8(v1) C3H8(v2) C3H8^+ C4H9 C4H9H C2H C5H12 H H2 H2^+ H3^+ H^+
END

BOLSIG
CH CH2 CH3 CH4 CH4(v13) CH4(v24) C2H2 C2H2(v13) C2H2(v2) C2H2(v5) C2H3 C2H4 C2H4(v1) C2H4(v2) C2H5 C2H6 C2H6(v13) C2H6(v24) C3H6 C3H6(v) C3H7 C3H8 C3H8(v1) C3H8(v2)
END

REACTIONS
# Gas Constant
$ double precision, parameter :: R = 8.314d-3

# Compensation Parameters
$ double precision, parameter :: f0 = 1.1451d0
$ double precision, parameter :: f1 = 3.4342d-6
$ double precision, parameter :: f2 = 1.4326d-5
$ double precision, parameter :: f3 = 1.3647d-1
$ double precision, parameter :: f4 = 4.7679d-4
$ double precision, parameter :: f5 = 7.7386d-7
$ double precision, parameter :: f6 = 5.9003d-2
$ double precision, parameter :: f7 = 4.0249d-2
$ double precision, parameter :: f8 = 2.4609d-1
$ double precision, parameter :: f9 = 7.9683d-2
$ double precision, parameter :: f10 = 2.9237d-4
$ double precision, parameter :: f11 = 7.5624d-8
$ double precision, parameter :: f12 = 7.6994d-3
$ double precision, parameter :: f13 = 9.9401d-3
$ double precision, parameter :: f14 = 1.5876d-6
$ double precision, parameter :: f15 = 5.7571d-7
$ double precision, parameter :: f16 = 5.5388d-3
$ double precision, parameter :: f17 = 4.7172d-4
$ double precision, parameter :: f18 = 1.5793d-2
$ double precision, parameter :: f19 = 6.6872d-5
$ double precision, parameter :: f20 = 2.8158d-4
$ double precision, parameter :: f21 = 5.9753d+1
$ double precision, parameter :: f22 = 3.5182d+1
$ double precision, parameter :: f23 = 1.1856d-3
$ double precision, parameter :: f24 = 8.3042d0
$ double precision, parameter :: f25 = 5.8021d-8
$ double precision, parameter :: f26 = 2.0877d-6
$ double precision, parameter :: f27 = 4.0865d-4
$ double precision, parameter :: f28 = 2.8425d0
$ double precision, parameter :: f29 = 9.7025d-6
$ double precision, parameter :: f30 = 3.3456d+1
$ double precision, parameter :: f31 = 3.6017d-8
$ double precision, parameter :: f32 = 8.3485d-4
$ double precision, parameter :: f33 = 3.0722d-1
$ double precision, parameter :: f34 = 2.5235d-4
$ double precision, parameter :: f35 = 1.9280d-5
$ double precision, parameter :: f36 = 1.8818d0
$ double precision, parameter :: f37 = 1.8589d-6
$ double precision, parameter :: f38 = 5.1715d-5
$ double precision, parameter :: f39 = 1.4001d+1
$ double precision, parameter :: f40 = 8.3147d-2
$ double precision, parameter :: f41 = 5.8024d-3
$ double precision, parameter :: f42 = 4.7201d-8
$ double precision, parameter :: f43 = 9.4078d-6
$ double precision, parameter :: f44 = 2.0924d-1
$ double precision, parameter :: f45 = 1.1060d-6
$ double precision, parameter :: f46 = 2.7984d-4
$ double precision, parameter :: f47 = 1.0592d-1
$ double precision, parameter :: f48 = 1.2570d-4
$ double precision, parameter :: f49 = 6.2716d+1
$ double precision, parameter :: f50 = 1.1071d-4
$ double precision, parameter :: f51 = 3.7398d-8
$ double precision, parameter :: f52 = 2.6351d-6
$ double precision, parameter :: f53 = 1.3596d-2
$ double precision, parameter :: f54 = 1.0572d-2
$ double precision, parameter :: f55 = 2.2709d-3
$ double precision, parameter :: f56 = 6.2636d-4
$ double precision, parameter :: f57 = 4.9380d-3
$ double precision, parameter :: f58 = 3.3673d-2
$ double precision, parameter :: f59 = 2.6089d-1
$ double precision, parameter :: f60 = 2.7557d+1
$ double precision, parameter :: f61 = 6.4821d+2
$ double precision, parameter :: f62 = 4.0717d-3
$ double precision, parameter :: f63 = 4.9545d+2
$ double precision, parameter :: f64 = 1.8166d-6
$ double precision, parameter :: f65 = 1.6425d+2
$ double precision, parameter :: f66 = 3.7308d0
$ double precision, parameter :: f67 = 2.4720d-4
$ double precision, parameter :: f68 = 6.8313d-6
$ double precision, parameter :: f69 = 5.3824d-6
$ double precision, parameter :: f70 = 1.2059d+2
$ double precision, parameter :: f71 = 2.4931d-2
$ double precision, parameter :: f72 = 1.4976d0
$ double precision, parameter :: f73 = 9.3511d+2
$ double precision, parameter :: f74 = 1.2631d-2
$ double precision, parameter :: f75 = 4.7747d-2
$ double precision, parameter :: f76 = 1.2372d+2
$ double precision, parameter :: f77 = 1.1831d-4
$ double precision, parameter :: f78 = 4.6202d-8
$ double precision, parameter :: f79 = 7.6646d-4
$ double precision, parameter :: f80 = 5.3913d-4
$ double precision, parameter :: f81 = 2.5637d+1
$ double precision, parameter :: f82 = 4.8642d-3
$ double precision, parameter :: f83 = 1.9496d-7
$ double precision, parameter :: f84 = 1.1025d+1
$ double precision, parameter :: f85 = 3.0491d-5
$ double precision, parameter :: f86 = 8.1611d0
$ double precision, parameter :: f87 = 5.2464d0
$ double precision, parameter :: f88 = 2.8787d-7
$ double precision, parameter :: f89 = 7.0936d-1
$ double precision, parameter :: f90 = 5.4875d-7
$ double precision, parameter :: f91 = 7.9514d+1
$ double precision, parameter :: f92 = 1.9373d-2
$ double precision, parameter :: f93 = 8.2815d+1
$ double precision, parameter :: f94 = 1.0524d-3
$ double precision, parameter :: f95 = 6.8936d+1
$ double precision, parameter :: f96 = 5.3968d+1
$ double precision, parameter :: f97 = 1.5876d-8
$ double precision, parameter :: f98 = 2.7780d-2
$ double precision, parameter :: f99 = 5.3779d0
$ double precision, parameter :: f100 = 5.6641d-2
$ double precision, parameter :: f101 = 8.6485d-8
$ double precision, parameter :: f102 = 5.9547d-8
$ double precision, parameter :: f103 = 6.2459d-4
$ double precision, parameter :: f104 = 7.6463d-8
$ double precision, parameter :: f105 = 1.5848d+1
$ double precision, parameter :: f106 = 9.8859d+1
$ double precision, parameter :: f107 = 1.6679d-7
$ double precision, parameter :: f108 = 1.6451d-8
$ double precision, parameter :: f109 = 2.4445d-3
$ double precision, parameter :: f110 = 5.4114d-2
$ double precision, parameter :: f111 = 1.4289d-8
$ double precision, parameter :: f112 = 5.7632d+1
$ double precision, parameter :: f113 = 1.3149d+2
$ double precision, parameter :: f114 = 7.6625d-4
$ double precision, parameter :: f115 = 3.8524d-7
$ double precision, parameter :: f116 = 3.0580d-6
$ double precision, parameter :: f117 = 6.1115d-8
$ double precision, parameter :: f118 = 5.5765d-7
$ double precision, parameter :: f119 = 9.0243d-7
$ double precision, parameter :: f120 = 8.8755d+2
$ double precision, parameter :: f121 = 6.7629d-1
$ double precision, parameter :: f122 = 8.1755d-5
$ double precision, parameter :: f123 = 3.3468d-5
$ double precision, parameter :: f124 = 1.4301d-8
$ double precision, parameter :: f125 = 3.8765d-3
$ double precision, parameter :: f126 = 2.4574d-8
$ double precision, parameter :: f127 = 2.2609d-1
$ double precision, parameter :: f128 = 2.3477d-3
$ double precision, parameter :: f129 = 8.7237d+2
$ double precision, parameter :: f130 = 1.0598d0
$ double precision, parameter :: f131 = 1.6240d-6
$ double precision, parameter :: f132 = 6.0326d-1
$ double precision, parameter :: f133 = 9.1294d-7
$ double precision, parameter :: f134 = 9.0800d-4
$ double precision, parameter :: f135 = 3.6460d-5
$ double precision, parameter :: f136 = 7.7670d+2
$ double precision, parameter :: f137 = 1.2615d-4
$ double precision, parameter :: f138 = 2.7159d-1
$ double precision, parameter :: f139 = 3.9462d+1
$ double precision, parameter :: f140 = 4.6646d-2
$ double precision, parameter :: f141 = 1.8610d-8
$ double precision, parameter :: f142 = 1.5898d-4
$ double precision, parameter :: f143 = 1.1446d0
$ double precision, parameter :: f144 = 1.4689d+1
$ double precision, parameter :: f145 = 4.1131d-5
$ double precision, parameter :: f146 = 5.6912d+1
$ double precision, parameter :: f147 = 1.5193d-7
$ double precision, parameter :: f148 = 4.9134d+1
$ double precision, parameter :: f149 = 1.8896d-8
$ double precision, parameter :: f150 = 3.6123d-5
$ double precision, parameter :: f151 = 1.1748d-1
$ double precision, parameter :: f152 = 6.0055d+2
$ double precision, parameter :: f153 = 3.2990d-4
$ double precision, parameter :: f154 = 1.9005d+1
$ double precision, parameter :: f155 = 3.2410d-2
$ double precision, parameter :: f156 = 1.6941d+1
$ double precision, parameter :: f157 = 1.2209d-5
$ double precision, parameter :: f158 = 8.3401d+1
$ double precision, parameter :: f159 = 1.3606d-4
$ double precision, parameter :: f160 = 6.3327d-1
$ double precision, parameter :: f161 = 3.8734d-3
$ double precision, parameter :: f162 = 9.4789d-8
$ double precision, parameter :: f163 = 1.7634d0
$ double precision, parameter :: f164 = 6.4279d-1
$ double precision, parameter :: f165 = 1.9693d-1
$ double precision, parameter :: f166 = 4.5099d+1
$ double precision, parameter :: f167 = 1.2545d-2
$ double precision, parameter :: f168 = 7.1999d-3
$ double precision, parameter :: f169 = 4.1796d-2
$ double precision, parameter :: f170 = 7.1165d-3
$ double precision, parameter :: f171 = 2.1356d-6
$ double precision, parameter :: f172 = 1.7821d-4
$ double precision, parameter :: f173 = 6.4505d-5
$ double precision, parameter :: f174 = 2.1528d+2
$ double precision, parameter :: f175 = 1.5142d-2
$ double precision, parameter :: f176 = 1.6068d-4
$ double precision, parameter :: f177 = 4.5113d-6
$ double precision, parameter :: f178 = 6.3856d-8
$ double precision, parameter :: f179 = 6.6294d-1
$ double precision, parameter :: f180 = 3.0801d-8
$ double precision, parameter :: f181 = 5.0895d-5
$ double precision, parameter :: f182 = 2.2845d-1
$ double precision, parameter :: f183 = 5.9390d-6
$ double precision, parameter :: f184 = 2.7139d-5
$ double precision, parameter :: f185 = 1.4164d-1
$ double precision, parameter :: f186 = 6.2862d-6
$ double precision, parameter :: f187 = 6.7766d-7
$ double precision, parameter :: f188 = 6.1823d-1
$ double precision, parameter :: f189 = 1.5140d-1
$ double precision, parameter :: f190 = 1.1123d0
$ double precision, parameter :: f191 = 2.7884d-4
$ double precision, parameter :: f192 = 1.6534d-2
$ double precision, parameter :: f193 = 1.3021d-3
$ double precision, parameter :: f194 = 1.2127d-8
$ double precision, parameter :: f195 = 5.0913d-8
$ double precision, parameter :: f196 = 2.0437d-1
$ double precision, parameter :: f197 = 2.7948d0
$ double precision, parameter :: f198 = 1.4741d-8
$ double precision, parameter :: f199 = 7.4977d-2
$ double precision, parameter :: f200 = 2.3555d+2
$ double precision, parameter :: f201 = 3.2662d-8
$ double precision, parameter :: f202 = 3.3042d-4
$ double precision, parameter :: f203 = 2.1326d-2
$ double precision, parameter :: f204 = 1.3539d-1
$ double precision, parameter :: f205 = 2.6780d-5
$ double precision, parameter :: f206 = 7.8755d-7
$ double precision, parameter :: f207 = 7.2113d+2
$ double precision, parameter :: f208 = 5.6229d+1
$ double precision, parameter :: f209 = 1.0395d0
$ double precision, parameter :: f210 = 3.1228d0
$ double precision, parameter :: f211 = 5.9256d-7
$ double precision, parameter :: f212 = 9.0790d-6
$ double precision, parameter :: f213 = 4.4554d-2
$ double precision, parameter :: f214 = 8.8440d-6
$ double precision, parameter :: f215 = 2.2466d-4
$ double precision, parameter :: f216 = 1.3006d-4
$ double precision, parameter :: f217 = 1.9636d-6
$ double precision, parameter :: f218 = 5.3556d-5
$ double precision, parameter :: f219 = 8.0095d-7
$ double precision, parameter :: f220 = 3.2561d-7
$ double precision, parameter :: f221 = 4.4673d-6
$ double precision, parameter :: f222 = 1.7499d-3
$ double precision, parameter :: f223 = 4.0626d-6
$ double precision, parameter :: f224 = 7.8195d-3
$ double precision, parameter :: f225 = 6.2264d-6
$ double precision, parameter :: f226 = 3.7819d-8
$ double precision, parameter :: f227 = 3.6729d+1
$ double precision, parameter :: f228 = 3.5324d+2
$ double precision, parameter :: f229 = 1.4218d-1
$ double precision, parameter :: f230 = 2.9448d+2
$ double precision, parameter :: f231 = 2.0715d-7
$ double precision, parameter :: f232 = 1.8831d-7
$ double precision, parameter :: f233 = 2.9813d-3
$ double precision, parameter :: f234 = 6.6958d+1
$ double precision, parameter :: f235 = 2.8914d-8
$ double precision, parameter :: f236 = 5.1330d-7
$ double precision, parameter :: f237 = 2.2417d-5
$ double precision, parameter :: f238 = 5.6050d-8
$ double precision, parameter :: f239 = 3.7427d-2
$ double precision, parameter :: f240 = 8.6388d-7
$ double precision, parameter :: f241 = 2.5410d0
$ double precision, parameter :: f242 = 6.7941d0
$ double precision, parameter :: f243 = 1.1890d+1
$ double precision, parameter :: f244 = 4.0284d-2
$ double precision, parameter :: f245 = 6.4128d-6
$ double precision, parameter :: f246 = 9.1986d-6
$ double precision, parameter :: f247 = 2.2061d0
$ double precision, parameter :: f248 = 1.9546d-7
$ double precision, parameter :: f249 = 7.7403d-5
$ double precision, parameter :: f250 = 1.3369d-1
$ double precision, parameter :: f251 = 2.5653d-7
$ double precision, parameter :: f252 = 3.2074d-3
$ double precision, parameter :: f253 = 6.8822d0
$ double precision, parameter :: f254 = 3.9176d-2
$ double precision, parameter :: f255 = 3.8692d-1
$ double precision, parameter :: f256 = 4.0247d-2
$ double precision, parameter :: f257 = 4.1026d-2
$ double precision, parameter :: f258 = 5.6331d-4
$ double precision, parameter :: f259 = 1.3235d+2
$ double precision, parameter :: f260 = 4.5491d0
$ double precision, parameter :: f261 = 3.9968d-4
$ double precision, parameter :: f262 = 1.1843d-5
$ double precision, parameter :: f263 = 6.1655d-3
$ double precision, parameter :: f264 = 5.0346d-6
$ double precision, parameter :: f265 = 8.7224d-7
$ double precision, parameter :: f266 = 3.1604d-5
$ double precision, parameter :: f267 = 7.9020d-4
$ double precision, parameter :: f268 = 1.9953d+1
$ double precision, parameter :: f269 = 3.8491d-7
$ double precision, parameter :: f270 = 5.4211d-3
$ double precision, parameter :: f271 = 1.9888d-4
$ double precision, parameter :: f272 = 1.0155d-3
$ double precision, parameter :: f273 = 2.1962d-6
$ double precision, parameter :: f274 = 2.7200d+2
$ double precision, parameter :: f275 = 1.2588d+2
$ double precision, parameter :: f276 = 1.0636d-8
$ double precision, parameter :: f277 = 2.0154d-3
$ double precision, parameter :: f278 = 5.5396d-8
$ double precision, parameter :: f279 = 1.4020d+2
$ double precision, parameter :: f280 = 2.8009d+1
$ double precision, parameter :: f281 = 1.3223d+2
$ double precision, parameter :: f282 = 3.6847d-1
$ double precision, parameter :: f283 = 1.5879d-8
$ double precision, parameter :: f284 = 2.0026d-3
$ double precision, parameter :: f285 = 4.5713d-7
$ double precision, parameter :: f286 = 1.4975d+2
$ double precision, parameter :: f287 = 3.6482d+2
$ double precision, parameter :: f288 = 3.9452d+2
$ double precision, parameter :: f289 = 1.0647d+1
$ double precision, parameter :: f290 = 1.5792d-4
$ double precision, parameter :: f291 = 4.0961d-7
$ double precision, parameter :: f292 = 2.3844d-7
$ double precision, parameter :: f293 = 2.1608d+2
$ double precision, parameter :: f294 = 1.9194d-1
$ double precision, parameter :: f295 = 5.5921d-8
$ double precision, parameter :: f296 = 2.0895d0
$ double precision, parameter :: f297 = 6.2450d-6
$ double precision, parameter :: f298 = 8.0376d-6
$ double precision, parameter :: f299 = 4.4677d-7
$ double precision, parameter :: f300 = 2.3143d-6
$ double precision, parameter :: f301 = 2.1256d0
$ double precision, parameter :: f302 = 2.2134d-2
$ double precision, parameter :: f303 = 1.5671d-3
$ double precision, parameter :: f304 = 2.7874d-2
$ double precision, parameter :: f305 = 5.2333d-4
$ double precision, parameter :: f306 = 4.6094d-3
$ double precision, parameter :: f307 = 1.2780d-4
$ double precision, parameter :: f308 = 1.7645d-2
$ double precision, parameter :: f309 = 1.2749d-5
$ double precision, parameter :: f310 = 1.5872d-2
$ double precision, parameter :: f311 = 4.1457d-3
$ double precision, parameter :: f312 = 5.0734d0
$ double precision, parameter :: f313 = 1.1810d+1
$ double precision, parameter :: f314 = 3.7639d+2
$ double precision, parameter :: f315 = 3.8180d0

# Electron Collision Reaction
e + CH4 => e + CH4(v24)		! f0 * Bolsig+ CH4 -> CH4(v24)
e + CH4 => e + CH4(v13)		! f1 * Bolsig+ CH4 -> CH4(v13)
e + C2H6 => e + C2H6(v24)		! f2 * Bolsig+ C2H6 -> C2H6(v24)
e + C2H6 => e + C2H6(v13)		! f3 * Bolsig+ C2H6 -> C2H6(v13)
e + C2H4 => e + C2H4(v1)		! f4 * Bolsig+ C2H4 -> C2H4(v1)
e + C2H4 => e + C2H4(v2)		! f5 * Bolsig+ C2H4 -> C2H4(v2)
e + C2H2 => e + C2H2(v5)		! f6 * Bolsig+ C2H2 -> C2H2(v5)
e + C2H2 => e + C2H2(v2)		! f7 * Bolsig+ C2H2 -> C2H2(v2)
e + C2H2 => e + C2H2(v13)		! f8 * Bolsig+ C2H2 -> C2H2(v13)
e + C3H8 => e + C3H8(v1)		! f9 * Bolsig+ C3H8 -> C3H8(v1)
e + C3H8 => e + C3H8(v2)		! f10 * Bolsig+ C3H8 -> C3H8(v2)
e + C3H6 => e + C3H6(v)		! f11 * Bolsig+ C3H6 -> C3H6(v)
e + CH4 => e + CH3 + H		! f12 * Bolsig+ CH4 -> CH3 H
e + CH4(v24) => e + CH3 + H		! f12 * Bolsig+ CH4(v24) -> CH3 H
e + CH4(v13) => e + CH3 + H		! f12 * Bolsig+ CH4(v13) -> CH3 H
e + CH4 => e + CH2 + H2		! f13 * Bolsig+ CH4 -> CH2 H2
e + CH4(v24) => e + CH2 + H2		! f13 * Bolsig+ CH4(v24) -> CH2 H2
e + CH4(v13) => e + CH2 + H2		! f13 * Bolsig+ CH4(v13) -> CH2 H2
e + CH4 => e + CH + H2 + H		! f14 * Bolsig+ CH4 -> CH H2 H
e + CH4(v24) => e + CH + H2 + H		! f14 * Bolsig+ CH4(v24) -> CH H2 H
e + CH4(v13) => e + CH + H2 + H		! f14 * Bolsig+ CH4(v13) -> CH H2 H
e + CH4 => e + C + H2 + H2		! f15 * Bolsig+ CH4 -> C H2 H2
e + CH4(v24) => e + C + H2 + H2		! f15 * Bolsig+ CH4(v24) -> C H2 H2
e + CH4(v13) => e + C + H2 + H2		! f15 * Bolsig+ CH4(v13) -> C H2 H2
e + CH3 => e + CH2 + H		! f16 * Bolsig+ CH3 -> CH2 H
e + CH3 => e + CH + H2		! f17 * Bolsig+ CH3 -> CH H2
e + CH3 => e + C + H2 + H		! f18 * Bolsig+ CH3 -> C H2 H
e + CH2 => e + CH + H		! f19 * Bolsig+ CH2 -> CH H
e + CH2 => e + C + H2		! f20 * Bolsig+ CH2 -> C H2
e + CH2 => e + C + H + H		! f21 * Bolsig+ CH2 -> C H H
e + CH => e + C + H		! f22 * Bolsig+ CH -> C H
e + CH4 => e + e + CH4^+		! f23 * Bolsig+ CH4 -> CH4^+
e + CH4(v24) => e + e + CH4^+		! f23 * Bolsig+ CH4(v24) -> CH4^+
e + CH4(v13) => e + e + CH4^+		! f23 * Bolsig+ CH4(v13) -> CH4^+
e + CH4 => e + e + H + CH3^+		! f24 * Bolsig+ CH4 -> H CH3^+
e + CH4(v24) => e + e + H + CH3^+		! f24 * Bolsig+ CH4(v24) -> H CH3^+
e + CH4(v13) => e + e + H + CH3^+		! f24 * Bolsig+ CH4(v13) -> H CH3^+
e + CH4 => e + e + H2 + CH2^+		! f25 * Bolsig+ CH4 -> H2 CH2^+
e + CH4(v24) => e + e + H2 + CH2^+		! f25 * Bolsig+ CH4(v24) -> H2 CH2^+
e + CH4(v13) => e + e + H2 + CH2^+		! f25 * Bolsig+ CH4(v13) -> H2 CH2^+
e + CH4 => e + e + H2 + H + CH^+		! f26 * Bolsig+ CH4 -> H2 H CH^+
e + CH4(v24) => e + e + H2 + H + CH^+		! f26 * Bolsig+ CH4(v24) -> H2 H CH^+
e + CH4(v13) => e + e + H2 + H + CH^+		! f26 * Bolsig+ CH4(v13) -> H2 H CH^+
e + CH3 => e + e + CH3^+		! f27 * Bolsig+ CH3 -> CH3^+
e + CH3 => e + e + H + CH2^+		! f28 * Bolsig+ CH3 -> H CH2^+
e + CH3 => e + e + H2 + CH^+		! f29 * Bolsig+ CH3 -> H2 CH^+
e + CH2 => e + e + CH2^+		! f30 * Bolsig+ CH2 -> CH2^+
e + CH2 => e + e + H + CH^+		! f31 * Bolsig+ CH2 -> H CH^+
e + CH => e + e + CH^+		! f32 * Bolsig+ CH -> CH^+
e + C2H6 => e + C2H5 + H		! f33 * Bolsig+ C2H6 -> C2H5 H
e + C2H6(v24) => e + C2H5 + H		! f33 * Bolsig+ C2H6(v24) -> C2H5 H
e + C2H6(v13) => e + C2H5 + H		! f33 * Bolsig+ C2H6(v13) -> C2H5 H
e + C2H6 => e + C2H4 + H2		! f34 * Bolsig+ C2H6 -> C2H4 H2
e + C2H6(v24) => e + C2H4 + H2		! f34 * Bolsig+ C2H6(v24) -> C2H4 H2
e + C2H6(v13) => e + C2H4 + H2		! f34 * Bolsig+ C2H6(v13) -> C2H4 H2
e + C2H6 => e + C2H3 + H2 + H		! f35 * Bolsig+ C2H6 -> C2H3 H2 H
e + C2H6(v24) => e + C2H3 + H2 + H		! f35 * Bolsig+ C2H6(v24) -> C2H3 H2 H
e + C2H6(v13) => e + C2H3 + H2 + H		! f35 * Bolsig+ C2H6(v13) -> C2H3 H2 H
e + C2H6 => e + C2H2 + H2 + H2		! f36 * Bolsig+ C2H6 -> C2H2 H2 H2
e + C2H6(v24) => e + C2H2 + H2 + H2		! f36 * Bolsig+ C2H6(v24) -> C2H2 H2 H2
e + C2H6(v13) => e + C2H2 + H2 + H2		! f36 * Bolsig+ C2H6(v13) -> C2H2 H2 H2
e + C2H6 => e + CH4 + CH2		! f37 * Bolsig+ C2H6 -> CH4 CH2
e + C2H6(v24) => e + CH4 + CH2		! f37 * Bolsig+ C2H6(v24) -> CH4 CH2
e + C2H6(v13) => e + CH4 + CH2		! f37 * Bolsig+ C2H6(v13) -> CH4 CH2
e + C2H6 => e + CH3 + CH3		! f38 * Bolsig+ C2H6 -> CH3 CH3
e + C2H6(v24) => e + CH3 + CH3		! f38 * Bolsig+ C2H6(v24) -> CH3 CH3
e + C2H6(v13) => e + CH3 + CH3		! f38 * Bolsig+ C2H6(v13) -> CH3 CH3
e + C2H5 => e + C2H4 + H		! f39 * Bolsig+ C2H5 -> C2H4 H
e + C2H5 => e + C2H3 + H2		! f40 * Bolsig+ C2H5 -> C2H3 H2
e + C2H5 => e + C2H3 + H + H		! f41 * Bolsig+ C2H5 -> C2H3 H H
e + C2H5 => e + C2H2 + H2 + H		! f42 * Bolsig+ C2H5 -> C2H2 H2 H
e + C2H5 => e + CH4 + CH		! f43 * Bolsig+ C2H5 -> CH4 CH
e + C2H5 => e + CH3 + CH2		! f44 * Bolsig+ C2H5 -> CH3 CH2
e + C2H4 => e + C2H3 + H		! f45 * Bolsig+ C2H4 -> C2H3 H
e + C2H4(v1) => e + C2H3 + H		! f45 * Bolsig+ C2H4(v1) -> C2H3 H
e + C2H4(v2) => e + C2H3 + H		! f45 * Bolsig+ C2H4(v2) -> C2H3 H
e + C2H4 => e + C2H2 + H2		! f46 * Bolsig+ C2H4 -> C2H2 H2
e + C2H4(v1) => e + C2H2 + H2		! f46 * Bolsig+ C2H4(v1) -> C2H2 H2
e + C2H4(v2) => e + C2H2 + H2		! f46 * Bolsig+ C2H4(v2) -> C2H2 H2
e + C2H4 => e + C2H2 + H + H		! f47 * Bolsig+ C2H4 -> C2H2 H H
e + C2H4(v1) => e + C2H2 + H + H		! f47 * Bolsig+ C2H4(v1) -> C2H2 H H
e + C2H4(v2) => e + C2H2 + H + H		! f47 * Bolsig+ C2H4(v2) -> C2H2 H H
e + C2H4 => e + CH3 + CH		! f48 * Bolsig+ C2H4 -> CH3 CH
e + C2H4(v1) => e + CH3 + CH		! f48 * Bolsig+ C2H4(v1) -> CH3 CH
e + C2H4(v2) => e + CH3 + CH		! f48 * Bolsig+ C2H4(v2) -> CH3 CH
e + C2H4 => e + CH2 + CH2		! f49 * Bolsig+ C2H4 -> CH2 CH2
e + C2H4(v1) => e + CH2 + CH2		! f49 * Bolsig+ C2H4(v1) -> CH2 CH2
e + C2H4(v2) => e + CH2 + CH2		! f49 * Bolsig+ C2H4(v2) -> CH2 CH2
e + C2H3 => e + C2H2 + H		! f50 * Bolsig+ C2H3 -> C2H2 H
e + C2H3 => e + CH2 + CH		! f51 * Bolsig+ C2H3 -> CH2 CH
e + C2H2 => e + CH + CH		! f52 * Bolsig+ C2H2 -> CH CH
e + C2H2(v5) => e + CH + CH		! f52 * Bolsig+ C2H2(v5) -> CH CH
e + C2H2(v2) => e + CH + CH		! f52 * Bolsig+ C2H2(v2) -> CH CH
e + C2H2(v13) => e + CH + CH		! f52 * Bolsig+ C2H2(v13) -> CH CH
e + C2H6 => e + e + C2H6^+		! f53 * Bolsig+ C2H6 -> C2H6^+
e + C2H6(v24) => e + e + C2H6^+		! f53 * Bolsig+ C2H6(v24) -> C2H6^+
e + C2H6(v13) => e + e + C2H6^+		! f53 * Bolsig+ C2H6(v13) -> C2H6^+
e + C2H6 => e + e + H + C2H5^+		! f54 * Bolsig+ C2H6 -> H C2H5^+
e + C2H6(v24) => e + e + H + C2H5^+		! f54 * Bolsig+ C2H6(v24) -> H C2H5^+
e + C2H6(v13) => e + e + H + C2H5^+		! f54 * Bolsig+ C2H6(v13) -> H C2H5^+
e + C2H6 => e + e + H2 + C2H4^+		! f55 * Bolsig+ C2H6 -> H2 C2H4^+
e + C2H6(v24) => e + e + H2 + C2H4^+		! f55 * Bolsig+ C2H6(v24) -> H2 C2H4^+
e + C2H6(v13) => e + e + H2 + C2H4^+		! f55 * Bolsig+ C2H6(v13) -> H2 C2H4^+
e + C2H6 => e + e + H2 + H + C2H3^+		! f56 * Bolsig+ C2H6 -> H2 H C2H3^+
e + C2H6(v24) => e + e + H2 + H + C2H3^+		! f56 * Bolsig+ C2H6(v24) -> H2 H C2H3^+
e + C2H6(v13) => e + e + H2 + H + C2H3^+		! f56 * Bolsig+ C2H6(v13) -> H2 H C2H3^+
e + C2H6 => e + e + H2 + H2 + C2H2^+		! f57 * Bolsig+ C2H6 -> H2 H2 C2H2^+
e + C2H6(v24) => e + e + H2 + H2 + C2H2^+		! f57 * Bolsig+ C2H6(v24) -> H2 H2 C2H2^+
e + C2H6(v13) => e + e + H2 + H2 + C2H2^+		! f57 * Bolsig+ C2H6(v13) -> H2 H2 C2H2^+
e + C2H6 => e + e + CH3 + CH3^+		! f58 * Bolsig+ C2H6 -> CH3 CH3^+
e + C2H6(v24) => e + e + CH3 + CH3^+		! f58 * Bolsig+ C2H6(v24) -> CH3 CH3^+
e + C2H6(v13) => e + e + CH3 + CH3^+		! f58 * Bolsig+ C2H6(v13) -> CH3 CH3^+
e + C2H6 => e + e + CH4 + CH2^+		! f59 * Bolsig+ C2H6 -> CH4 CH2^+
e + C2H6(v24) => e + e + CH4 + CH2^+		! f59 * Bolsig+ C2H6(v24) -> CH4 CH2^+
e + C2H6(v13) => e + e + CH4 + CH2^+		! f59 * Bolsig+ C2H6(v13) -> CH4 CH2^+
e + C2H5 => e + e + C2H5^+		! f60 * Bolsig+ C2H5 -> C2H5^+
e + C2H5 => e + e + H + C2H4^+		! f61 * Bolsig+ C2H5 -> H C2H4^+
e + C2H5 => e + e + H2 + C2H3^+		! f62 * Bolsig+ C2H5 -> H2 C2H3^+
e + C2H5 => e + e + H2 + H + C2H2^+		! f63 * Bolsig+ C2H5 -> H2 H C2H2^+
e + C2H5 => e + e + CH2 + CH3^+		! f64 * Bolsig+ C2H5 -> CH2 CH3^+
e + C2H5 => e + e + CH3 + CH2^+		! f65 * Bolsig+ C2H5 -> CH3 CH2^+
e + C2H5 => e + e + CH4 + CH^+		! f66 * Bolsig+ C2H5 -> CH4 CH^+
e + C2H4 => e + e + C2H4^+		! f67 * Bolsig+ C2H4 -> C2H4^+
e + C2H4(v1) => e + e + C2H4^+		! f67 * Bolsig+ C2H4(v1) -> C2H4^+
e + C2H4(v2) => e + e + C2H4^+		! f67 * Bolsig+ C2H4(v2) -> C2H4^+
e + C2H4 => e + e + H + C2H3^+		! f68 * Bolsig+ C2H4 -> H C2H3^+
e + C2H4(v1) => e + e + H + C2H3^+		! f68 * Bolsig+ C2H4(v1) -> H C2H3^+
e + C2H4(v2) => e + e + H + C2H3^+		! f68 * Bolsig+ C2H4(v2) -> H C2H3^+
e + C2H4 => e + e + CH + CH3^+		! f69 * Bolsig+ C2H4 -> CH CH3^+
e + C2H4(v1) => e + e + CH + CH3^+		! f69 * Bolsig+ C2H4(v1) -> CH CH3^+
e + C2H4(v2) => e + e + CH + CH3^+		! f69 * Bolsig+ C2H4(v2) -> CH CH3^+
e + C2H4 => e + e + CH2 + CH2^+		! f70 * Bolsig+ C2H4 -> CH2 CH2^+
e + C2H4(v1) => e + e + CH2 + CH2^+		! f70 * Bolsig+ C2H4(v1) -> CH2 CH2^+
e + C2H4(v2) => e + e + CH2 + CH2^+		! f70 * Bolsig+ C2H4(v2) -> CH2 CH2^+
e + C2H4 => e + e + CH3 + CH^+		! f71 * Bolsig+ C2H4 -> CH3 CH^+
e + C2H4(v1) => e + e + CH3 + CH^+		! f71 * Bolsig+ C2H4(v1) -> CH3 CH^+
e + C2H4(v2) => e + e + CH3 + CH^+		! f71 * Bolsig+ C2H4(v2) -> CH3 CH^+
e + C2H3 => e + e + C2H3^+		! f72 * Bolsig+ C2H3 -> C2H3^+
e + C2H3 => e + e + H + C2H2^+		! f73 * Bolsig+ C2H3 -> H C2H2^+
e + C2H3 => e + e + CH + CH2^+		! f74 * Bolsig+ C2H3 -> CH CH2^+
e + C2H3 => e + e + CH2 + CH^+		! f75 * Bolsig+ C2H3 -> CH2 CH^+
e + C2H3 => e + e + C2H2 + H^+		! f76 * Bolsig+ C2H3 -> C2H2 H^+
e + C2H2 => e + e + C2H2^+		! f77 * Bolsig+ C2H2 -> C2H2^+
e + C2H2(v5) => e + e + C2H2^+		! f77 * Bolsig+ C2H2(v5) -> C2H2^+
e + C2H2(v2) => e + e + C2H2^+		! f77 * Bolsig+ C2H2(v2) -> C2H2^+
e + C2H2(v13) => e + e + C2H2^+		! f77 * Bolsig+ C2H2(v13) -> C2H2^+
e + C2H2 => e + e + CH + CH^+		! f78 * Bolsig+ C2H2 -> CH CH^+
e + C2H2(v5) => e + e + CH + CH^+		! f78 * Bolsig+ C2H2(v5) -> CH CH^+
e + C2H2(v2) => e + e + CH + CH^+		! f78 * Bolsig+ C2H2(v2) -> CH CH^+
e + C2H2(v13) => e + e + CH + CH^+		! f78 * Bolsig+ C2H2(v13) -> CH CH^+
e + C3H8 => e + C3H7 + H		! f79 * Bolsig+ C3H8 -> C3H7 H
e + C3H8(v1) => e + C3H7 + H		! f79 * Bolsig+ C3H8(v1) -> C3H7 H
e + C3H8(v2) => e + C3H7 + H		! f79 * Bolsig+ C3H8(v2) -> C3H7 H
e + C3H8 => e + C3H6 + H2		! f80 * Bolsig+ C3H8 -> C3H6 H2
e + C3H8(v1) => e + C3H6 + H2		! f80 * Bolsig+ C3H8(v1) -> C3H6 H2
e + C3H8(v2) => e + C3H6 + H2		! f80 * Bolsig+ C3H8(v2) -> C3H6 H2
e + C3H7 => e + C3H6 + H		! f81 * Bolsig+ C3H7 -> C3H6 H
e + C3H8 => e + e + C3H8^+		! f82 * Bolsig+ C3H8 -> C3H8^+
e + C3H8(v1) => e + e + C3H8^+		! f82 * Bolsig+ C3H8(v1) -> C3H8^+
e + C3H8(v2) => e + e + C3H8^+		! f82 * Bolsig+ C3H8(v2) -> C3H8^+
e + C3H8 => e + e + H + C3H7^+		! f83 * Bolsig+ C3H8 -> H C3H7^+
e + C3H8(v1) => e + e + H + C3H7^+		! f83 * Bolsig+ C3H8(v1) -> H C3H7^+
e + C3H8(v2) => e + e + H + C3H7^+		! f83 * Bolsig+ C3H8(v2) -> H C3H7^+
e + C3H8 => e + e + H2 + C3H6^+		! f84 * Bolsig+ C3H8 -> H2 C3H6^+
e + C3H8(v1) => e + e + H2 + C3H6^+		! f84 * Bolsig+ C3H8(v1) -> H2 C3H6^+
e + C3H8(v2) => e + e + H2 + C3H6^+		! f84 * Bolsig+ C3H8(v2) -> H2 C3H6^+
e + C3H7 => e + e + C3H7^+		! f85 * Bolsig+ C3H7 -> C3H7^+
e + C3H7 => e + e + H + C3H6^+		! f86 * Bolsig+ C3H7 -> H C3H6^+
e + C3H6 => e + e + C3H6^+		! f87 * Bolsig+ C3H6 -> C3H6^+
e + C3H6(v) => e + e + C3H6^+		! f87 * Bolsig+ C3H6(v) -> C3H6^+
e + C3H6 => e + C2H2 + CH4		! f88 * Bolsig+ C3H6 -> C2H2 CH4
e + C3H6(v) => e + C2H2 + CH4		! f88 * Bolsig+ C3H6(v) -> C2H2 CH4
e + C3H6 => e + e + C2H2 + CH4^+		! f89 * Bolsig+ C3H6 -> C2H2 CH4^+
e + C3H6(v) => e + e + C2H2 + CH4^+		! f89 * Bolsig+ C3H6(v) -> C2H2 CH4^+

# Ion Recombination Reaction
e + e + CH^+ => e + CH		! f90 * 1.00d0
e + e + CH2^+ => e + CH2		! f91 * 1.00d0
e + e + CH3^+ => e + CH3		! f92 * 1.00d0
e + e + CH4^+ => e + CH4		! f93 * 1.00d0
e + e + C2H2^+ => e + C2H2		! f94 * 1.00d0
e + e + C2H3^+ => e + C2H3		! f95 * 1.00d0
e + e + C2H4^+ => e + C2H4		! f96 * 1.00d0
e + e + C2H5^+ => e + C2H5		! f97 * 1.00d0
e + e + C2H6^+ => e + C2H6		! f98 * 1.00d0
e + e + C3H6^+ => e + C3H6		! f99 * 1.00d0
e + e + C3H7^+ => e + C3H7		! f100 * 1.00d0
e + e + C3H8^+ => e + C3H8		! f101 * 1.00d0

# Gas Phase Reaction
e + CH4^+ => CH3 + H		! f102 * 1.18d-08 * (300./Tgas)**0.5
e + CH4^+ => CH2 + H + H		! f103 * 2.42d-08 * (300./Tgas)**0.5
e + CH4^+ => CH + H2 + H		! f104 * 1.41d-08 * (300./Tgas)**0.5
e + CH3^+ => CH2 + H		! f105 * 2.25d-08 * (300./Tgas)**0.5
e + CH3^+ => CH + H2		! f106 * 7.88d-09 * (300./Tgas)**0.5
e + CH3^+ => CH + H + H		! f107 * 9.00d-09 * (300./Tgas)**0.5
e + CH3^+ => C + H2 + H		! f108 * 1.69d-08 * (300./Tgas)**0.5
e + CH2^+ => CH + H		! f109 * 1.00d-08 * (300./Tgas)**0.5
e + CH2^+ => C + H2		! f110 * 4.82d-09 * (300./Tgas)**0.5
e + CH2^+ => C + H + H		! f111 * 2.53d-08 * (300./Tgas)**0.5
e + CH^+ => C + H		! f112 * 3.23d-08 * (300./Tgas)**0.42
e + C2H6^+ => C2H5 + H		! f113 * 2.19d-08 * (300./Tgas)**0.71
e + C2H6^+ => C2H4 + H + H		! f114 * 3.36d-08 * (300./Tgas)**0.71
e + C2H5^+ => C2H4 + H		! f115 * 7.70d-09 * (300./Tgas)**0.71
e + C2H5^+ => C2H3 + H + H		! f116 * 1.92d-08 * (300./Tgas)**0.71
e + C2H5^+ => C2H2 + H2 + H		! f117 * 1.60d-08 * (300./Tgas)**0.71
e + C2H5^+ => C2H2 + H + H + H		! f118 * 8.98d-09 * (300./Tgas)**0.71
e + C2H5^+ => CH3 + CH2		! f119 * 9.62d-09 * (300./Tgas)**0.71
e + C2H4^+ => C2H3 + H		! f120 * 8.29d-09 * (300./Tgas)**0.71
e + C2H4^+ => C2H2 + H + H		! f121 * 3.43d-08 * (300./Tgas)**0.71
e + C2H3^+ => C2H2 + H		! f122 * 1.34d-08 * (300./Tgas)**0.71
e + C2H2^+ => CH + CH		! f123 * 4.87d-09 * (300./Tgas)**0.71
e + H2^+ => H + H		! f124 * 3.17d21/(6.022d23 * Te**4.5)
e + H3^+ => H + H2		! f125 * 3.17d21/(6.022d23 * Te**4.5)
H2 + H2^+ => H + H3^+		! f126 * 2.11d-09
C2H6 + CH4^+ => CH4 + H2 + C2H4^+		! f127 * 1.91d-9
C2H6(v24) + CH4^+ => CH4 + H2 + C2H4^+		! f127 * 1.91d-9
C2H6(v13) + CH4^+ => CH4 + H2 + C2H4^+		! f127 * 1.91d-9
C2H4 + CH4^+ => CH3 + C2H5^+		! f128 * 4.23d-10