ELEMENTS
e C H
END

SPECIES
e C CH CH^+ CH2 CH2^+ CH3 CH3^+ CH4 CH4(v13) CH4(v24) CH4^+ C2H2 C2H2(v13) C2H2(v2) C2H2(v5) C2H2^+ C2H3 C2H3^+ C2H4 C2H4(v1) C2H4(v2) C2H4^+ C2H5 C2H5^+
C2H6 C2H6(v13) C2H6(v24) C2H6^+ C3H5 C3H6 C3H6(v) C3H6^+ C3H7 C3H7^+ C3H8 C3H8(v1) C3H8(v2) C3H8^+ C4H9 C4H9H C2H C5H12 H H2 H2^+ H3^+ H^+
END

BOLSIG
CH CH2 CH3 CH4 CH4(v13) CH4(v24) C2H2 C2H2(v13) C2H2(v2) C2H2(v5) C2H3 C2H4 C2H4(v1) C2H4(v2) C2H5 C2H6 C2H6(v13) C2H6(v24) C3H6 C3H6(v) C3H7 C3H8 C3H8(v1) C3H8(v2)
END

REACTIONS
# Gas Constant
$ double precision, parameter :: R = 8.314d-3

# Compensation Parameters
$ double precision, parameter :: f0 = 3.5945d-2
$ double precision, parameter :: f1 = 3.8595d-7
$ double precision, parameter :: f2 = 7.9887d0
$ double precision, parameter :: f3 = 4.2942d-7
$ double precision, parameter :: f4 = 2.8253d+1
$ double precision, parameter :: f5 = 2.9929d-6
$ double precision, parameter :: f6 = 8.8445d-7
$ double precision, parameter :: f7 = 1.0002d-2
$ double precision, parameter :: f8 = 1.3092d-2
$ double precision, parameter :: f9 = 1.9946d-4
$ double precision, parameter :: f10 = 1.5517d-6
$ double precision, parameter :: f11 = 4.5848d-7
$ double precision, parameter :: f12 = 6.1678d-8
$ double precision, parameter :: f13 = 2.7877d-8
$ double precision, parameter :: f14 = 8.1373d-5
$ double precision, parameter :: f15 = 2.0192d-4
$ double precision, parameter :: f16 = 9.5153d-6
$ double precision, parameter :: f17 = 5.7499d-1
$ double precision, parameter :: f18 = 4.8754d-6
$ double precision, parameter :: f19 = 1.3587d-3
$ double precision, parameter :: f20 = 3.4618d+2
$ double precision, parameter :: f21 = 8.3363d-7
$ double precision, parameter :: f22 = 5.0316d+2
$ double precision, parameter :: f23 = 1.2502d-5
$ double precision, parameter :: f24 = 3.9269d-7
$ double precision, parameter :: f25 = 1.8150d-6
$ double precision, parameter :: f26 = 3.8183d-3
$ double precision, parameter :: f27 = 5.5933d-3
$ double precision, parameter :: f28 = 4.2027d-6
$ double precision, parameter :: f29 = 1.0370d+1
$ double precision, parameter :: f30 = 4.5405d-8
$ double precision, parameter :: f31 = 2.5590d-6
$ double precision, parameter :: f32 = 2.3296d0
$ double precision, parameter :: f33 = 1.7288d-3
$ double precision, parameter :: f34 = 5.3560d0
$ double precision, parameter :: f35 = 9.8766d+1
$ double precision, parameter :: f36 = 1.4359d-4
$ double precision, parameter :: f37 = 2.9536d-1
$ double precision, parameter :: f38 = 4.1964d-3
$ double precision, parameter :: f39 = 3.1115d-1
$ double precision, parameter :: f40 = 7.9775d-6
$ double precision, parameter :: f41 = 2.4603d+2
$ double precision, parameter :: f42 = 4.9071d-2
$ double precision, parameter :: f43 = 1.4357d+2
$ double precision, parameter :: f44 = 2.5899d-8
$ double precision, parameter :: f45 = 2.7294d+1
$ double precision, parameter :: f46 = 8.7196d-4
$ double precision, parameter :: f47 = 4.7017d-8
$ double precision, parameter :: f48 = 9.0343d-4
$ double precision, parameter :: f49 = 2.4566d-7
$ double precision, parameter :: f50 = 2.0308d-6
$ double precision, parameter :: f51 = 9.4557d+1
$ double precision, parameter :: f52 = 4.1465d-5
$ double precision, parameter :: f53 = 4.2410d-3
$ double precision, parameter :: f54 = 1.5503d-5
$ double precision, parameter :: f55 = 7.1491d0
$ double precision, parameter :: f56 = 2.3092d0
$ double precision, parameter :: f57 = 1.7921d-1
$ double precision, parameter :: f58 = 1.9195d-7
$ double precision, parameter :: f59 = 6.5552d-4
$ double precision, parameter :: f60 = 1.8790d-3
$ double precision, parameter :: f61 = 1.3122d-5
$ double precision, parameter :: f62 = 6.2106d-7
$ double precision, parameter :: f63 = 1.1379d-3
$ double precision, parameter :: f64 = 1.3151d-2
$ double precision, parameter :: f65 = 1.9661d-2
$ double precision, parameter :: f66 = 3.0011d-4
$ double precision, parameter :: f67 = 1.4000d0
$ double precision, parameter :: f68 = 2.2763d-8
$ double precision, parameter :: f69 = 4.6681d0
$ double precision, parameter :: f70 = 6.7630d+1
$ double precision, parameter :: f71 = 3.4303d-7
$ double precision, parameter :: f72 = 1.5279d-2
$ double precision, parameter :: f73 = 1.8650d-5
$ double precision, parameter :: f74 = 2.1152d-1
$ double precision, parameter :: f75 = 5.5679d-1
$ double precision, parameter :: f76 = 5.1855d-1
$ double precision, parameter :: f77 = 1.1298d+1
$ double precision, parameter :: f78 = 5.0571d-7
$ double precision, parameter :: f79 = 4.4313d-7
$ double precision, parameter :: f80 = 1.1455d0
$ double precision, parameter :: f81 = 2.1915d+2
$ double precision, parameter :: f82 = 3.8662d+1
$ double precision, parameter :: f83 = 2.4624d-3
$ double precision, parameter :: f84 = 3.7172d+1
$ double precision, parameter :: f85 = 4.5697d-5
$ double precision, parameter :: f86 = 1.0137d-8
$ double precision, parameter :: f87 = 2.7101d+2
$ double precision, parameter :: f88 = 5.0568d-4
$ double precision, parameter :: f89 = 7.2735d-2
$ double precision, parameter :: f90 = 9.8123d-5
$ double precision, parameter :: f91 = 1.3189d-8
$ double precision, parameter :: f92 = 1.3525d+2
$ double precision, parameter :: f93 = 1.9139d-2
$ double precision, parameter :: f94 = 2.6405d-8
$ double precision, parameter :: f95 = 4.6716d-2
$ double precision, parameter :: f96 = 1.4952d-3
$ double precision, parameter :: f97 = 5.3042d0
$ double precision, parameter :: f98 = 1.1923d-6
$ double precision, parameter :: f99 = 1.2963d-7
$ double precision, parameter :: f100 = 4.7760d+2
$ double precision, parameter :: f101 = 1.6205d-8
$ double precision, parameter :: f102 = 5.7167d-8
$ double precision, parameter :: f103 = 5.5759d-2
$ double precision, parameter :: f104 = 3.0448d-7
$ double precision, parameter :: f105 = 9.8677d-2
$ double precision, parameter :: f106 = 1.6513d-6
$ double precision, parameter :: f107 = 3.1006d-7
$ double precision, parameter :: f108 = 1.7520d0
$ double precision, parameter :: f109 = 1.3668d-4
$ double precision, parameter :: f110 = 9.8242d-7
$ double precision, parameter :: f111 = 1.1112d-4
$ double precision, parameter :: f112 = 1.9637d+1
$ double precision, parameter :: f113 = 1.8140d-8
$ double precision, parameter :: f114 = 1.4718d-1
$ double precision, parameter :: f115 = 5.1151d+2
$ double precision, parameter :: f116 = 1.3747d+1
$ double precision, parameter :: f117 = 1.4951d-5
$ double precision, parameter :: f118 = 6.9696d0
$ double precision, parameter :: f119 = 6.9874d-8
$ double precision, parameter :: f120 = 2.6553d-2
$ double precision, parameter :: f121 = 4.8846d-3
$ double precision, parameter :: f122 = 3.7514d-8
$ double precision, parameter :: f123 = 1.3937d-7
$ double precision, parameter :: f124 = 5.0047d-1
$ double precision, parameter :: f125 = 2.2134d-3
$ double precision, parameter :: f126 = 5.9351d-4
$ double precision, parameter :: f127 = 3.8005d-5
$ double precision, parameter :: f128 = 1.1498d-2
$ double precision, parameter :: f129 = 7.8723d-6
$ double precision, parameter :: f130 = 5.8196d+2
$ double precision, parameter :: f131 = 4.8481d-1
$ double precision, parameter :: f132 = 1.0413d-1
$ double precision, parameter :: f133 = 3.8677d+2
$ double precision, parameter :: f134 = 3.8321d-8
$ double precision, parameter :: f135 = 5.3045d-3
$ double precision, parameter :: f136 = 7.6959d-7
$ double precision, parameter :: f137 = 2.3703d-3
$ double precision, parameter :: f138 = 4.1695d-7
$ double precision, parameter :: f139 = 6.0652d-5
$ double precision, parameter :: f140 = 3.7415d-2
$ double precision, parameter :: f141 = 2.2629d-1
$ double precision, parameter :: f142 = 1.7566d-7
$ double precision, parameter :: f143 = 3.0797d+1
$ double precision, parameter :: f144 = 5.4191d0
$ double precision, parameter :: f145 = 3.5180d-3
$ double precision, parameter :: f146 = 2.3184d-1
$ double precision, parameter :: f147 = 4.4304d-7
$ double precision, parameter :: f148 = 3.4095d-4
$ double precision, parameter :: f149 = 2.9505d-6
$ double precision, parameter :: f150 = 1.7893d0
$ double precision, parameter :: f151 = 8.9567d-8
$ double precision, parameter :: f152 = 3.6584d-2
$ double precision, parameter :: f153 = 1.4140d0
$ double precision, parameter :: f154 = 2.2897d-4
$ double precision, parameter :: f155 = 2.4988d-2
$ double precision, parameter :: f156 = 9.1649d-6
$ double precision, parameter :: f157 = 5.6275d-3
$ double precision, parameter :: f158 = 3.5182d-8
$ double precision, parameter :: f159 = 1.9899d-3
$ double precision, parameter :: f160 = 1.4609d0
$ double precision, parameter :: f161 = 9.6730d-2
$ double precision, parameter :: f162 = 1.5310d-2
$ double precision, parameter :: f163 = 8.7548d+2
$ double precision, parameter :: f164 = 5.7744d-1
$ double precision, parameter :: f165 = 1.3013d-7
$ double precision, parameter :: f166 = 1.2501d-4
$ double precision, parameter :: f167 = 6.0262d-6
$ double precision, parameter :: f168 = 7.3696d-2
$ double precision, parameter :: f169 = 2.0017d-5
$ double precision, parameter :: f170 = 6.6882d+2
$ double precision, parameter :: f171 = 1.5181d-3
$ double precision, parameter :: f172 = 2.2309d+1
$ double precision, parameter :: f173 = 1.2784d-8
$ double precision, parameter :: f174 = 3.1828d-1
$ double precision, parameter :: f175 = 2.5567d0
$ double precision, parameter :: f176 = 4.1439d-2
$ double precision, parameter :: f177 = 6.0416d-3
$ double precision, parameter :: f178 = 4.3924d-7
$ double precision, parameter :: f179 = 1.1610d-3
$ double precision, parameter :: f180 = 6.9638d0
$ double precision, parameter :: f181 = 3.8376d-5
$ double precision, parameter :: f182 = 5.9995d+1
$ double precision, parameter :: f183 = 1.2478d-4
$ double precision, parameter :: f184 = 5.0815d0
$ double precision, parameter :: f185 = 4.7534d-7
$ double precision, parameter :: f186 = 1.8956d-4
$ double precision, parameter :: f187 = 3.5942d+1
$ double precision, parameter :: f188 = 3.6196d0
$ double precision, parameter :: f189 = 1.5734d-5
$ double precision, parameter :: f190 = 2.6231d-3
$ double precision, parameter :: f191 = 1.2378d-4
$ double precision, parameter :: f192 = 2.6062d0
$ double precision, parameter :: f193 = 3.6347d-2
$ double precision, parameter :: f194 = 1.0799d+1
$ double precision, parameter :: f195 = 4.8241d-2
$ double precision, parameter :: f196 = 6.4320d-6
$ double precision, parameter :: f197 = 2.9236d-3
$ double precision, parameter :: f198 = 2.0718d-3
$ double precision, parameter :: f199 = 1.2235d-1
$ double precision, parameter :: f200 = 6.6747d+1
$ double precision, parameter :: f201 = 2.0110d+1
$ double precision, parameter :: f202 = 3.4342d+1
$ double precision, parameter :: f203 = 1.3585d-5
$ double precision, parameter :: f204 = 2.0415d-8
$ double precision, parameter :: f205 = 1.2691d-5
$ double precision, parameter :: f206 = 1.7361d-7
$ double precision, parameter :: f207 = 1.3630d-5
$ double precision, parameter :: f208 = 3.3087d-4
$ double precision, parameter :: f209 = 1.4802d-3
$ double precision, parameter :: f210 = 1.4612d-4
$ double precision, parameter :: f211 = 3.6535d-1
$ double precision, parameter :: f212 = 6.0566d0
$ double precision, parameter :: f213 = 1.3541d-1
$ double precision, parameter :: f214 = 2.9029d-8
$ double precision, parameter :: f215 = 9.7844d-6
$ double precision, parameter :: f216 = 4.8702d+2
$ double precision, parameter :: f217 = 1.6781d-7
$ double precision, parameter :: f218 = 3.7690d-3
$ double precision, parameter :: f219 = 4.7781d-7
$ double precision, parameter :: f220 = 4.5578d-4
$ double precision, parameter :: f221 = 3.1548d+2
$ double precision, parameter :: f222 = 2.3011d-6
$ double precision, parameter :: f223 = 4.9336d-4
$ double precision, parameter :: f224 = 1.8033d+1
$ double precision, parameter :: f225 = 2.2300d-1
$ double precision, parameter :: f226 = 2.7133d-1
$ double precision, parameter :: f227 = 1.3753d+2
$ double precision, parameter :: f228 = 1.3934d-1
$ double precision, parameter :: f229 = 4.6296d+2
$ double precision, parameter :: f230 = 8.3032d-1
$ double precision, parameter :: f231 = 3.2887d+1
$ double precision, parameter :: f232 = 3.9995d-5
$ double precision, parameter :: f233 = 1.0391d-4
$ double precision, parameter :: f234 = 1.0442d+2
$ double precision, parameter :: f235 = 3.5263d-2
$ double precision, parameter :: f236 = 6.4457d-7
$ double precision, parameter :: f237 = 1.7382d-7
$ double precision, parameter :: f238 = 2.2072d-2
$ double precision, parameter :: f239 = 1.1154d-3
$ double precision, parameter :: f240 = 6.5474d-7
$ double precision, parameter :: f241 = 5.4705d-3
$ double precision, parameter :: f242 = 4.1762d-2
$ double precision, parameter :: f243 = 7.5722d0
$ double precision, parameter :: f244 = 6.6023d-3
$ double precision, parameter :: f245 = 3.3514d-6
$ double precision, parameter :: f246 = 1.5464d+1
$ double precision, parameter :: f247 = 5.8621d-5
$ double precision, parameter :: f248 = 5.6349d-2
$ double precision, parameter :: f249 = 1.4181d-6
$ double precision, parameter :: f250 = 3.8730d+1
$ double precision, parameter :: f251 = 8.8190d-6
$ double precision, parameter :: f252 = 1.0271d-2
$ double precision, parameter :: f253 = 1.0267d-6
$ double precision, parameter :: f254 = 2.9490d-7
$ double precision, parameter :: f255 = 6.9934d-2
$ double precision, parameter :: f256 = 1.4276d-3
$ double precision, parameter :: f257 = 1.0395d0
$ double precision, parameter :: f258 = 1.0207d-2
$ double precision, parameter :: f259 = 3.5400d0
$ double precision, parameter :: f260 = 1.3304d+1
$ double precision, parameter :: f261 = 1.9376d-6
$ double precision, parameter :: f262 = 5.1952d-1
$ double precision, parameter :: f263 = 5.0238d-2
$ double precision, parameter :: f264 = 2.9608d-1
$ double precision, parameter :: f265 = 1.8420d-1
$ double precision, parameter :: f266 = 9.8565d-7
$ double precision, parameter :: f267 = 1.0756d-2
$ double precision, parameter :: f268 = 1.9057d-2
$ double precision, parameter :: f269 = 5.5127d-7
$ double precision, parameter :: f270 = 1.0283d-7
$ double precision, parameter :: f271 = 4.0049d-7
$ double precision, parameter :: f272 = 2.6496d-6
$ double precision, parameter :: f273 = 2.0717d-7
$ double precision, parameter :: f274 = 1.4316d-3
$ double precision, parameter :: f275 = 1.1405d-2
$ double precision, parameter :: f276 = 2.3015d0
$ double precision, parameter :: f277 = 7.1832d-8
$ double precision, parameter :: f278 = 4.1748d-6
$ double precision, parameter :: f279 = 4.1681d+2
$ double precision, parameter :: f280 = 1.1618d+1
$ double precision, parameter :: f281 = 1.0187d-8
$ double precision, parameter :: f282 = 1.8757d-4
$ double precision, parameter :: f283 = 2.0046d0
$ double precision, parameter :: f284 = 1.1595d-8
$ double precision, parameter :: f285 = 1.5785d-8
$ double precision, parameter :: f286 = 4.3244d-5
$ double precision, parameter :: f287 = 4.7920d+1
$ double precision, parameter :: f288 = 1.2801d0
$ double precision, parameter :: f289 = 3.1795d-7
$ double precision, parameter :: f290 = 2.9755d+1
$ double precision, parameter :: f291 = 1.2476d+2
$ double precision, parameter :: f292 = 1.5268d-4
$ double precision, parameter :: f293 = 5.8361d-5
$ double precision, parameter :: f294 = 4.2505d-2
$ double precision, parameter :: f295 = 1.0426d-5
$ double precision, parameter :: f296 = 9.8460d-7
$ double precision, parameter :: f297 = 4.4719d0
$ double precision, parameter :: f298 = 1.4928d-8
$ double precision, parameter :: f299 = 6.6205d-8
$ double precision, parameter :: f300 = 3.5015d+1
$ double precision, parameter :: f301 = 5.8961d-3
$ double precision, parameter :: f302 = 9.4325d+2
$ double precision, parameter :: f303 = 5.5630d+1
$ double precision, parameter :: f304 = 7.0154d-7
$ double precision, parameter :: f305 = 3.8940d+1
$ double precision, parameter :: f306 = 2.4823d-8
$ double precision, parameter :: f307 = 9.1829d+2
$ double precision, parameter :: f308 = 1.5344d-5
$ double precision, parameter :: f309 = 1.7606d-5
$ double precision, parameter :: f310 = 1.6547d-5
$ double precision, parameter :: f311 = 9.6631d-1
$ double precision, parameter :: f312 = 8.1091d-6
$ double precision, parameter :: f313 = 2.9841d+1
$ double precision, parameter :: f314 = 2.3670d-4
$ double precision, parameter :: f315 = 6.3740d-3

# Electron Collision Reaction
e + CH4 => e + CH4(v24)		! f0 * Bolsig+ CH4 -> CH4(v24)
e + CH4 => e + CH4(v13)		! f1 * Bolsig+ CH4 -> CH4(v13)
e + C2H6 => e + C2H6(v24)		! f2 * Bolsig+ C2H6 -> C2H6(v24)
e + C2H6 => e + C2H6(v13)		! f3 * Bolsig+ C2H6 -> C2H6(v13)
e + C2H4 => e + C2H4(v1)		! f4 * Bolsig+ C2H4 -> C2H4(v1)
e + C2H4 => e + C2H4(v2)		! f5 * Bolsig+ C2H4 -> C2H4(v2)
e + C2H2 => e + C2H2(v5)		! f6 * Bolsig+ C2H2 -> C2H2(v5)
e + C2H2 => e + C2H2(v2)		! f7 * Bolsig+ C2H2 -> C2H2(v2)
e + C2H2 => e + C2H2(v13)		! f8 * Bolsig+ C2H2 -> C2H2(v13)
e + C3H8 => e + C3H8(v1)		! f9 * Bolsig+ C3H8 -> C3H8(v1)
e + C3H8 => e + C3H8(v2)		! f10 * Bolsig+ C3H8 -> C3H8(v2)
e + C3H6 => e + C3H6(v)		! f11 * Bolsig+ C3H6 -> C3H6(v)
e + CH4 => e + CH3 + H		! f12 * Bolsig+ CH4 -> CH3 H
e + CH4(v24) => e + CH3 + H		! f12 * Bolsig+ CH4(v24) -> CH3 H
e + CH4(v13) => e + CH3 + H		! f12 * Bolsig+ CH4(v13) -> CH3 H
e + CH4 => e + CH2 + H2		! f13 * Bolsig+ CH4 -> CH2 H2
e + CH4(v24) => e + CH2 + H2		! f13 * Bolsig+ CH4(v24) -> CH2 H2
e + CH4(v13) => e + CH2 + H2		! f13 * Bolsig+ CH4(v13) -> CH2 H2
e + CH4 => e + CH + H2 + H		! f14 * Bolsig+ CH4 -> CH H2 H
e + CH4(v24) => e + CH + H2 + H		! f14 * Bolsig+ CH4(v24) -> CH H2 H
e + CH4(v13) => e + CH + H2 + H		! f14 * Bolsig+ CH4(v13) -> CH H2 H
e + CH4 => e + C + H2 + H2		! f15 * Bolsig+ CH4 -> C H2 H2
e + CH4(v24) => e + C + H2 + H2		! f15 * Bolsig+ CH4(v24) -> C H2 H2
e + CH4(v13) => e + C + H2 + H2		! f15 * Bolsig+ CH4(v13) -> C H2 H2
e + CH3 => e + CH2 + H		! f16 * Bolsig+ CH3 -> CH2 H
e + CH3 => e + CH + H2		! f17 * Bolsig+ CH3 -> CH H2
e + CH3 => e + C + H2 + H		! f18 * Bolsig+ CH3 -> C H2 H
e + CH2 => e + CH + H		! f19 * Bolsig+ CH2 -> CH H
e + CH2 => e + C + H2		! f20 * Bolsig+ CH2 -> C H2
e + CH2 => e + C + H + H		! f21 * Bolsig+ CH2 -> C H H
e + CH => e + C + H		! f22 * Bolsig+ CH -> C H
e + CH4 => e + e + CH4^+		! f23 * Bolsig+ CH4 -> CH4^+
e + CH4(v24) => e + e + CH4^+		! f23 * Bolsig+ CH4(v24) -> CH4^+
e + CH4(v13) => e + e + CH4^+		! f23 * Bolsig+ CH4(v13) -> CH4^+
e + CH4 => e + e + H + CH3^+		! f24 * Bolsig+ CH4 -> H CH3^+
e + CH4(v24) => e + e + H + CH3^+		! f24 * Bolsig+ CH4(v24) -> H CH3^+
e + CH4(v13) => e + e + H + CH3^+		! f24 * Bolsig+ CH4(v13) -> H CH3^+
e + CH4 => e + e + H2 + CH2^+		! f25 * Bolsig+ CH4 -> H2 CH2^+
e + CH4(v24) => e + e + H2 + CH2^+		! f25 * Bolsig+ CH4(v24) -> H2 CH2^+
e + CH4(v13) => e + e + H2 + CH2^+		! f25 * Bolsig+ CH4(v13) -> H2 CH2^+
e + CH4 => e + e + H2 + H + CH^+		! f26 * Bolsig+ CH4 -> H2 H CH^+
e + CH4(v24) => e + e + H2 + H + CH^+		! f26 * Bolsig+ CH4(v24) -> H2 H CH^+
e + CH4(v13) => e + e + H2 + H + CH^+		! f26 * Bolsig+ CH4(v13) -> H2 H CH^+
e + CH3 => e + e + CH3^+		! f27 * Bolsig+ CH3 -> CH3^+
e + CH3 => e + e + H + CH2^+		! f28 * Bolsig+ CH3 -> H CH2^+
e + CH3 => e + e + H2 + CH^+		! f29 * Bolsig+ CH3 -> H2 CH^+
e + CH2 => e + e + CH2^+		! f30 * Bolsig+ CH2 -> CH2^+
e + CH2 => e + e + H + CH^+		! f31 * Bolsig+ CH2 -> H CH^+
e + CH => e + e + CH^+		! f32 * Bolsig+ CH -> CH^+
e + C2H6 => e + C2H5 + H		! f33 * Bolsig+ C2H6 -> C2H5 H
e + C2H6(v24) => e + C2H5 + H		! f33 * Bolsig+ C2H6(v24) -> C2H5 H
e + C2H6(v13) => e + C2H5 + H		! f33 * Bolsig+ C2H6(v13) -> C2H5 H
e + C2H6 => e + C2H4 + H2		! f34 * Bolsig+ C2H6 -> C2H4 H2
e + C2H6(v24) => e + C2H4 + H2		! f34 * Bolsig+ C2H6(v24) -> C2H4 H2
e + C2H6(v13) => e + C2H4 + H2		! f34 * Bolsig+ C2H6(v13) -> C2H4 H2
e + C2H6 => e + C2H3 + H2 + H		! f35 * Bolsig+ C2H6 -> C2H3 H2 H
e + C2H6(v24) => e + C2H3 + H2 + H		! f35 * Bolsig+ C2H6(v24) -> C2H3 H2 H
e + C2H6(v13) => e + C2H3 + H2 + H		! f35 * Bolsig+ C2H6(v13) -> C2H3 H2 H
e + C2H6 => e + C2H2 + H2 + H2		! f36 * Bolsig+ C2H6 -> C2H2 H2 H2
e + C2H6(v24) => e + C2H2 + H2 + H2		! f36 * Bolsig+ C2H6(v24) -> C2H2 H2 H2
e + C2H6(v13) => e + C2H2 + H2 + H2		! f36 * Bolsig+ C2H6(v13) -> C2H2 H2 H2
e + C2H6 => e + CH4 + CH2		! f37 * Bolsig+ C2H6 -> CH4 CH2
e + C2H6(v24) => e + CH4 + CH2		! f37 * Bolsig+ C2H6(v24) -> CH4 CH2
e + C2H6(v13) => e + CH4 + CH2		! f37 * Bolsig+ C2H6(v13) -> CH4 CH2
e + C2H6 => e + CH3 + CH3		! f38 * Bolsig+ C2H6 -> CH3 CH3
e + C2H6(v24) => e + CH3 + CH3		! f38 * Bolsig+ C2H6(v24) -> CH3 CH3
e + C2H6(v13) => e + CH3 + CH3		! f38 * Bolsig+ C2H6(v13) -> CH3 CH3
e + C2H5 => e + C2H4 + H		! f39 * Bolsig+ C2H5 -> C2H4 H
e + C2H5 => e + C2H3 + H2		! f40 * Bolsig+ C2H5 -> C2H3 H2
e + C2H5 => e + C2H3 + H + H		! f41 * Bolsig+ C2H5 -> C2H3 H H
e + C2H5 => e + C2H2 + H2 + H		! f42 * Bolsig+ C2H5 -> C2H2 H2 H
e + C2H5 => e + CH4 + CH		! f43 * Bolsig+ C2H5 -> CH4 CH
e + C2H5 => e + CH3 + CH2		! f44 * Bolsig+ C2H5 -> CH3 CH2
e + C2H4 => e + C2H3 + H		! f45 * Bolsig+ C2H4 -> C2H3 H
e + C2H4(v1) => e + C2H3 + H		! f45 * Bolsig+ C2H4(v1) -> C2H3 H
e + C2H4(v2) => e + C2H3 + H		! f45 * Bolsig+ C2H4(v2) -> C2H3 H
e + C2H4 => e + C2H2 + H2		! f46 * Bolsig+ C2H4 -> C2H2 H2
e + C2H4(v1) => e + C2H2 + H2		! f46 * Bolsig+ C2H4(v1) -> C2H2 H2
e + C2H4(v2) => e + C2H2 + H2		! f46 * Bolsig+ C2H4(v2) -> C2H2 H2
e + C2H4 => e + C2H2 + H + H		! f47 * Bolsig+ C2H4 -> C2H2 H H
e + C2H4(v1) => e + C2H2 + H + H		! f47 * Bolsig+ C2H4(v1) -> C2H2 H H
e + C2H4(v2) => e + C2H2 + H + H		! f47 * Bolsig+ C2H4(v2) -> C2H2 H H
e + C2H4 => e + CH3 + CH		! f48 * Bolsig+ C2H4 -> CH3 CH
e + C2H4(v1) => e + CH3 + CH		! f48 * Bolsig+ C2H4(v1) -> CH3 CH
e + C2H4(v2) => e + CH3 + CH		! f48 * Bolsig+ C2H4(v2) -> CH3 CH
e + C2H4 => e + CH2 + CH2		! f49 * Bolsig+ C2H4 -> CH2 CH2
e + C2H4(v1) => e + CH2 + CH2		! f49 * Bolsig+ C2H4(v1) -> CH2 CH2
e + C2H4(v2) => e + CH2 + CH2		! f49 * Bolsig+ C2H4(v2) -> CH2 CH2
e + C2H3 => e + C2H2 + H		! f50 * Bolsig+ C2H3 -> C2H2 H
e + C2H3 => e + CH2 + CH		! f51 * Bolsig+ C2H3 -> CH2 CH
e + C2H2 => e + CH + CH		! f52 * Bolsig+ C2H2 -> CH CH
e + C2H2(v5) => e + CH + CH		! f52 * Bolsig+ C2H2(v5) -> CH CH
e + C2H2(v2) => e + CH + CH		! f52 * Bolsig+ C2H2(v2) -> CH CH
e + C2H2(v13) => e + CH + CH		! f52 * Bolsig+ C2H2(v13) -> CH CH
e + C2H6 => e + e + C2H6^+		! f53 * Bolsig+ C2H6 -> C2H6^+
e + C2H6(v24) => e + e + C2H6^+		! f53 * Bolsig+ C2H6(v24) -> C2H6^+
e + C2H6(v13) => e + e + C2H6^+		! f53 * Bolsig+ C2H6(v13) -> C2H6^+
e + C2H6 => e + e + H + C2H5^+		! f54 * Bolsig+ C2H6 -> H C2H5^+
e + C2H6(v24) => e + e + H + C2H5^+		! f54 * Bolsig+ C2H6(v24) -> H C2H5^+
e + C2H6(v13) => e + e + H + C2H5^+		! f54 * Bolsig+ C2H6(v13) -> H C2H5^+
e + C2H6 => e + e + H2 + C2H4^+		! f55 * Bolsig+ C2H6 -> H2 C2H4^+
e + C2H6(v24) => e + e + H2 + C2H4^+		! f55 * Bolsig+ C2H6(v24) -> H2 C2H4^+
e + C2H6(v13) => e + e + H2 + C2H4^+		! f55 * Bolsig+ C2H6(v13) -> H2 C2H4^+
e + C2H6 => e + e + H2 + H + C2H3^+		! f56 * Bolsig+ C2H6 -> H2 H C2H3^+
e + C2H6(v24) => e + e + H2 + H + C2H3^+		! f56 * Bolsig+ C2H6(v24) -> H2 H C2H3^+
e + C2H6(v13) => e + e + H2 + H + C2H3^+		! f56 * Bolsig+ C2H6(v13) -> H2 H C2H3^+
e + C2H6 => e + e + H2 + H2 + C2H2^+		! f57 * Bolsig+ C2H6 -> H2 H2 C2H2^+
e + C2H6(v24) => e + e + H2 + H2 + C2H2^+		! f57 * Bolsig+ C2H6(v24) -> H2 H2 C2H2^+
e + C2H6(v13) => e + e + H2 + H2 + C2H2^+		! f57 * Bolsig+ C2H6(v13) -> H2 H2 C2H2^+
e + C2H6 => e + e + CH3 + CH3^+		! f58 * Bolsig+ C2H6 -> CH3 CH3^+
e + C2H6(v24) => e + e + CH3 + CH3^+		! f58 * Bolsig+ C2H6(v24) -> CH3 CH3^+
e + C2H6(v13) => e + e + CH3 + CH3^+		! f58 * Bolsig+ C2H6(v13) -> CH3 CH3^+
e + C2H6 => e + e + CH4 + CH2^+		! f59 * Bolsig+ C2H6 -> CH4 CH2^+
e + C2H6(v24) => e + e + CH4 + CH2^+		! f59 * Bolsig+ C2H6(v24) -> CH4 CH2^+
e + C2H6(v13) => e + e + CH4 + CH2^+		! f59 * Bolsig+ C2H6(v13) -> CH4 CH2^+
e + C2H5 => e + e + C2H5^+		! f60 * Bolsig+ C2H5 -> C2H5^+
e + C2H5 => e + e + H + C2H4^+		! f61 * Bolsig+ C2H5 -> H C2H4^+
e + C2H5 => e + e + H2 + C2H3^+		! f62 * Bolsig+ C2H5 -> H2 C2H3^+
e + C2H5 => e + e + H2 + H + C2H2^+		! f63 * Bolsig+ C2H5 -> H2 H C2H2^+
e + C2H5 => e + e + CH2 + CH3^+		! f64 * Bolsig+ C2H5 -> CH2 CH3^+
e + C2H5 => e + e + CH3 + CH2^+		! f65 * Bolsig+ C2H5 -> CH3 CH2^+
e + C2H5 => e + e + CH4 + CH^+		! f66 * Bolsig+ C2H5 -> CH4 CH^+
e + C2H4 => e + e + C2H4^+		! f67 * Bolsig+ C2H4 -> C2H4^+
e + C2H4(v1) => e + e + C2H4^+		! f67 * Bolsig+ C2H4(v1) -> C2H4^+
e + C2H4(v2) => e + e + C2H4^+		! f67 * Bolsig+ C2H4(v2) -> C2H4^+
e + C2H4 => e + e + H + C2H3^+		! f68 * Bolsig+ C2H4 -> H C2H3^+
e + C2H4(v1) => e + e + H + C2H3^+		! f68 * Bolsig+ C2H4(v1) -> H C2H3^+
e + C2H4(v2) => e + e + H + C2H3^+		! f68 * Bolsig+ C2H4(v2) -> H C2H3^+
e + C2H4 => e + e + CH + CH3^+		! f69 * Bolsig+ C2H4 -> CH CH3^+
e + C2H4(v1) => e + e + CH + CH3^+		! f69 * Bolsig+ C2H4(v1) -> CH CH3^+
e + C2H4(v2) => e + e + CH + CH3^+		! f69 * Bolsig+ C2H4(v2) -> CH CH3^+
e + C2H4 => e + e + CH2 + CH2^+		! f70 * Bolsig+ C2H4 -> CH2 CH2^+
e + C2H4(v1) => e + e + CH2 + CH2^+		! f70 * Bolsig+ C2H4(v1) -> CH2 CH2^+
e + C2H4(v2) => e + e + CH2 + CH2^+		! f70 * Bolsig+ C2H4(v2) -> CH2 CH2^+
e + C2H4 => e + e + CH3 + CH^+		! f71 * Bolsig+ C2H4 -> CH3 CH^+
e + C2H4(v1) => e + e + CH3 + CH^+		! f71 * Bolsig+ C2H4(v1) -> CH3 CH^+
e + C2H4(v2) => e + e + CH3 + CH^+		! f71 * Bolsig+ C2H4(v2) -> CH3 CH^+
e + C2H3 => e + e + C2H3^+		! f72 * Bolsig+ C2H3 -> C2H3^+
e + C2H3 => e + e + H + C2H2^+		! f73 * Bolsig+ C2H3 -> H C2H2^+
e + C2H3 => e + e + CH + CH2^+		! f74 * Bolsig+ C2H3 -> CH CH2^+
e + C2H3 => e + e + CH2 + CH^+		! f75 * Bolsig+ C2H3 -> CH2 CH^+
e + C2H3 => e + e + C2H2 + H^+		! f76 * Bolsig+ C2H3 -> C2H2 H^+
e + C2H2 => e + e + C2H2^+		! f77 * Bolsig+ C2H2 -> C2H2^+
e + C2H2(v5) => e + e + C2H2^+		! f77 * Bolsig+ C2H2(v5) -> C2H2^+
e + C2H2(v2) => e + e + C2H2^+		! f77 * Bolsig+ C2H2(v2) -> C2H2^+
e + C2H2(v13) => e + e + C2H2^+		! f77 * Bolsig+ C2H2(v13) -> C2H2^+
e + C2H2 => e + e + CH + CH^+		! f78 * Bolsig+ C2H2 -> CH CH^+
e + C2H2(v5) => e + e + CH + CH^+		! f78 * Bolsig+ C2H2(v5) -> CH CH^+
e + C2H2(v2) => e + e + CH + CH^+		! f78 * Bolsig+ C2H2(v2) -> CH CH^+
e + C2H2(v13) => e + e + CH + CH^+		! f78 * Bolsig+ C2H2(v13) -> CH CH^+
e + C3H8 => e + C3H7 + H		! f79 * Bolsig+ C3H8 -> C3H7 H
e + C3H8(v1) => e + C3H7 + H		! f79 * Bolsig+ C3H8(v1) -> C3H7 H
e + C3H8(v2) => e + C3H7 + H		! f79 * Bolsig+ C3H8(v2) -> C3H7 H
e + C3H8 => e + C3H6 + H2		! f80 * Bolsig+ C3H8 -> C3H6 H2
e + C3H8(v1) => e + C3H6 + H2		! f80 * Bolsig+ C3H8(v1) -> C3H6 H2
e + C3H8(v2) => e + C3H6 + H2		! f80 * Bolsig+ C3H8(v2) -> C3H6 H2
e + C3H7 => e + C3H6 + H		! f81 * Bolsig+ C3H7 -> C3H6 H
e + C3H8 => e + e + C3H8^+		! f82 * Bolsig+ C3H8 -> C3H8^+
e + C3H8(v1) => e + e + C3H8^+		! f82 * Bolsig+ C3H8(v1) -> C3H8^+
e + C3H8(v2) => e + e + C3H8^+		! f82 * Bolsig+ C3H8(v2) -> C3H8^+
e + C3H8 => e + e + H + C3H7^+		! f83 * Bolsig+ C3H8 -> H C3H7^+
e + C3H8(v1) => e + e + H + C3H7^+		! f83 * Bolsig+ C3H8(v1) -> H C3H7^+
e + C3H8(v2) => e + e + H + C3H7^+		! f83 * Bolsig+ C3H8(v2) -> H C3H7^+
e + C3H8 => e + e + H2 + C3H6^+		! f84 * Bolsig+ C3H8 -> H2 C3H6^+
e + C3H8(v1) => e + e + H2 + C3H6^+		! f84 * Bolsig+ C3H8(v1) -> H2 C3H6^+
e + C3H8(v2) => e + e + H2 + C3H6^+		! f84 * Bolsig+ C3H8(v2) -> H2 C3H6^+
e + C3H7 => e + e + C3H7^+		! f85 * Bolsig+ C3H7 -> C3H7^+
e + C3H7 => e + e + H + C3H6^+		! f86 * Bolsig+ C3H7 -> H C3H6^+
e + C3H6 => e + e + C3H6^+		! f87 * Bolsig+ C3H6 -> C3H6^+
e + C3H6(v) => e + e + C3H6^+		! f87 * Bolsig+ C3H6(v) -> C3H6^+
e + C3H6 => e + C2H2 + CH4		! f88 * Bolsig+ C3H6 -> C2H2 CH4
e + C3H6(v) => e + C2H2 + CH4		! f88 * Bolsig+ C3H6(v) -> C2H2 CH4
e + C3H6 => e + e + C2H2 + CH4^+		! f89 * Bolsig+ C3H6 -> C2H2 CH4^+
e + C3H6(v) => e + e + C2H2 + CH4^+		! f89 * Bolsig+ C3H6(v) -> C2H2 CH4^+

# Ion Recombination Reaction
e + e + CH^+ => e + CH		! f90 * 1.00d0
e + e + CH2^+ => e + CH2		! f91 * 1.00d0
e + e + CH3^+ => e + CH3		! f92 * 1.00d0
e + e + CH4^+ => e + CH4		! f93 * 1.00d0
e + e + C2H2^+ => e + C2H2		! f94 * 1.00d0
e + e + C2H3^+ => e + C2H3		! f95 * 1.00d0
e + e + C2H4^+ => e + C2H4		! f96 * 1.00d0
e + e + C2H5^+ => e + C2H5		! f97 * 1.00d0
e + e + C2H6^+ => e + C2H6		! f98 * 1.00d0
e + e + C3H6^+ => e + C3H6		! f99 * 1.00d0
e + e + C3H7^+ => e + C3H7		! f100 * 1.00d0
e + e + C3H8^+ => e + C3H8		! f101 * 1.00d0

# Gas Phase Reaction
e + CH4^+ => CH3 + H		! f102 * 1.18d-08 * (300./Tgas)**0.5
e + CH4^+ => CH2 + H + H		! f103 * 2.42d-08 * (300./Tgas)**0.5
e + CH4^+ => CH + H2 + H		! f104 * 1.41d-08 * (300./Tgas)**0.5
e + CH3^+ => CH2 + H		! f105 * 2.25d-08 * (300./Tgas)**0.5
e + CH3^+ => CH + H2		! f106 * 7.88d-09 * (300./Tgas)**0.5
e + CH3^+ => CH + H + H		! f107 * 9.00d-09 * (300./Tgas)**0.5
e + CH3^+ => C + H2 + H		! f108 * 1.69d-08 * (300./Tgas)**0.5
e + CH2^+ => CH + H		! f109 * 1.00d-08 * (300./Tgas)**0.5
e + CH2^+ => C + H2		! f110 * 4.82d-09 * (300./Tgas)**0.5
e + CH2^+ => C + H + H		! f111 * 2.53d-08 * (300./Tgas)**0.5
e + CH^+ => C + H		! f112 * 3.23d-08 * (300./Tgas)**0.42
e + C2H6^+ => C2H5 + H		! f113 * 2.19d-08 * (300./Tgas)**0.71
e + C2H6^+ => C2H4 + H + H		! f114 * 3.36d-08 * (300./Tgas)**0.71
e + C2H5^+ => C2H4 + H		! f115 * 7.70d-09 * (300./Tgas)**0.71
e + C2H5^+ => C2H3 + H + H		! f116 * 1.92d-08 * (300./Tgas)**0.71
e + C2H5^+ => C2H2 + H2 + H		! f117 * 1.60d-08 * (300./Tgas)**0.71
e + C2H5^+ => C2H2 + H + H + H		! f118 * 8.98d-09 * (300./Tgas)**0.71
e + C2H5^+ => CH3 + CH2		! f119 * 9.62d-09 * (300./Tgas)**0.71
e + C2H4^+ => C2H3 + H		! f120 * 8.29d-09 * (300./Tgas)**0.71
e + C2H4^+ => C2H2 + H + H		! f121 * 3.43d-08 * (300./Tgas)**0.71
e + C2H3^+ => C2H2 + H		! f122 * 1.34d-08 * (300./Tgas)**0.71
e + C2H2^+ => CH + CH		! f123 * 4.87d-09 * (300./Tgas)**0.71
e + H2^+ => H + H		! f124 * 3.17d21/(6.022d23 * Te**4.5)
e + H3^+ => H + H2		! f125 * 3.17d21/(6.022d23 * Te**4.5)
H2 + H2^+ => H + H3^+		! f126 * 2.11d-09
C2H6 + CH4^+ => CH4 + H2 + C2H4^+		! f127 * 1.91d-9
C2H6(v24) + CH4^+ => CH4 + H2 + C2H4^+		! f127 * 1.91d-9
C2H6(v13) + CH4^+ => CH4 + H2 + C2H4^+		! f127 * 1.91d-9
C2H4 + CH4^+ => CH3 + C2H5^+		! f128 * 4.23d-10