ELEMENTS
e C H
END

SPECIES
e C CH CH^+ CH2 CH2^+ CH3 CH3^+ CH4 CH4(v13) CH4(v24) CH4^+ C2H2 C2H2(v13) C2H2(v2) C2H2(v5) C2H2^+ C2H3 C2H3^+ C2H4 C2H4(v1) C2H4(v2) C2H4^+ C2H5 C2H5^+
C2H6 C2H6(v13) C2H6(v24) C2H6^+ C3H5 C3H6 C3H6(v) C3H6^+ C3H7 C3H7^+ C3H8 C3H8(v1) C3H8(v2) C3H8^+ C4H9 C4H9H C2H C5H12 H H2 H2^+ H3^+ H^+
END

BOLSIG
CH CH2 CH3 CH4 CH4(v13) CH4(v24) C2H2 C2H2(v13) C2H2(v2) C2H2(v5) C2H3 C2H4 C2H4(v1) C2H4(v2) C2H5 C2H6 C2H6(v13) C2H6(v24) C3H6 C3H6(v) C3H7 C3H8 C3H8(v1) C3H8(v2)
END

REACTIONS
# Gas Constant
$ double precision, parameter :: R = 8.314d-3

# Compensation Parameters
$ double precision, parameter :: f0 = 1.4154d-4
$ double precision, parameter :: f1 = 9.8246d-5
$ double precision, parameter :: f2 = 1.1968d-7
$ double precision, parameter :: f3 = 8.6898d-3
$ double precision, parameter :: f4 = 2.8361d+1
$ double precision, parameter :: f5 = 4.9451d-7
$ double precision, parameter :: f6 = 3.2891d-7
$ double precision, parameter :: f7 = 2.7586d-2
$ double precision, parameter :: f8 = 1.5005d-5
$ double precision, parameter :: f9 = 3.8648d0
$ double precision, parameter :: f10 = 2.6968d-8
$ double precision, parameter :: f11 = 4.5882d-4
$ double precision, parameter :: f12 = 2.1679d-5
$ double precision, parameter :: f13 = 2.5383d+2
$ double precision, parameter :: f14 = 1.1434d-1
$ double precision, parameter :: f15 = 1.2318d-4
$ double precision, parameter :: f16 = 3.5396d+2
$ double precision, parameter :: f17 = 1.6429d+2
$ double precision, parameter :: f18 = 2.1435d-8
$ double precision, parameter :: f19 = 3.5586d-7
$ double precision, parameter :: f20 = 4.0783d-5
$ double precision, parameter :: f21 = 2.6865d-2
$ double precision, parameter :: f22 = 1.3853d-4
$ double precision, parameter :: f23 = 2.0851d-8
$ double precision, parameter :: f24 = 5.8443d-8
$ double precision, parameter :: f25 = 1.3895d-5
$ double precision, parameter :: f26 = 9.3361d-4
$ double precision, parameter :: f27 = 9.5320d-4
$ double precision, parameter :: f28 = 8.8730d-3
$ double precision, parameter :: f29 = 4.2083d+2
$ double precision, parameter :: f30 = 7.7776d-7
$ double precision, parameter :: f31 = 9.9524d0
$ double precision, parameter :: f32 = 4.3002d-3
$ double precision, parameter :: f33 = 1.8949d-4
$ double precision, parameter :: f34 = 3.9047d+2
$ double precision, parameter :: f35 = 7.5194d-3
$ double precision, parameter :: f36 = 6.5216d-3
$ double precision, parameter :: f37 = 9.1478d-5
$ double precision, parameter :: f38 = 8.4488d+2
$ double precision, parameter :: f39 = 8.1820d-3
$ double precision, parameter :: f40 = 2.3338d+2
$ double precision, parameter :: f41 = 3.0003d+2
$ double precision, parameter :: f42 = 1.2501d-5
$ double precision, parameter :: f43 = 1.9127d-7
$ double precision, parameter :: f44 = 1.9285d-8
$ double precision, parameter :: f45 = 8.4653d+2
$ double precision, parameter :: f46 = 2.9997d-2
$ double precision, parameter :: f47 = 4.6911d-4
$ double precision, parameter :: f48 = 3.7812d0
$ double precision, parameter :: f49 = 3.1714d+2
$ double precision, parameter :: f50 = 2.0114d-8
$ double precision, parameter :: f51 = 5.9902d-8
$ double precision, parameter :: f52 = 3.8127d-7
$ double precision, parameter :: f53 = 4.0697d-8
$ double precision, parameter :: f54 = 9.5715d-4
$ double precision, parameter :: f55 = 2.3009d-6
$ double precision, parameter :: f56 = 6.2854d-3
$ double precision, parameter :: f57 = 1.8958d-7
$ double precision, parameter :: f58 = 3.8883d-2
$ double precision, parameter :: f59 = 5.7210d-7
$ double precision, parameter :: f60 = 7.1699d-7
$ double precision, parameter :: f61 = 1.0036d-3
$ double precision, parameter :: f62 = 6.7361d-8
$ double precision, parameter :: f63 = 1.7544d+2
$ double precision, parameter :: f64 = 6.4140d-8
$ double precision, parameter :: f65 = 3.8641d+2
$ double precision, parameter :: f66 = 1.2392d-2
$ double precision, parameter :: f67 = 6.6459d+1
$ double precision, parameter :: f68 = 2.2164d-7
$ double precision, parameter :: f69 = 5.5809d-8
$ double precision, parameter :: f70 = 1.0270d-1
$ double precision, parameter :: f71 = 1.4801d+1
$ double precision, parameter :: f72 = 8.4413d-4
$ double precision, parameter :: f73 = 2.3515d-6
$ double precision, parameter :: f74 = 7.5146d-3
$ double precision, parameter :: f75 = 7.5035d-8
$ double precision, parameter :: f76 = 2.1773d-8
$ double precision, parameter :: f77 = 2.1410d-8
$ double precision, parameter :: f78 = 5.4126d-2
$ double precision, parameter :: f79 = 2.7916d+2
$ double precision, parameter :: f80 = 7.3095d+1
$ double precision, parameter :: f81 = 1.3460d0
$ double precision, parameter :: f82 = 1.6660d-6
$ double precision, parameter :: f83 = 9.5952d-1
$ double precision, parameter :: f84 = 1.7595d-4
$ double precision, parameter :: f85 = 2.1599d-6
$ double precision, parameter :: f86 = 9.5922d-2
$ double precision, parameter :: f87 = 4.8096d-2
$ double precision, parameter :: f88 = 1.1078d+2
$ double precision, parameter :: f89 = 4.1116d+1
$ double precision, parameter :: f90 = 4.9658d+1
$ double precision, parameter :: f91 = 6.8997d-1
$ double precision, parameter :: f92 = 1.9991d-6
$ double precision, parameter :: f93 = 4.8695d-5
$ double precision, parameter :: f94 = 1.7208d-4
$ double precision, parameter :: f95 = 1.1162d0
$ double precision, parameter :: f96 = 3.0358d+2
$ double precision, parameter :: f97 = 1.1411d-7
$ double precision, parameter :: f98 = 6.6998d-1
$ double precision, parameter :: f99 = 1.6796d+2
$ double precision, parameter :: f100 = 1.1109d-6
$ double precision, parameter :: f101 = 1.1563d-3
$ double precision, parameter :: f102 = 1.0123d+1
$ double precision, parameter :: f103 = 1.2480d-5
$ double precision, parameter :: f104 = 2.8403d-8
$ double precision, parameter :: f105 = 2.4711d+2
$ double precision, parameter :: f106 = 1.6239d-2
$ double precision, parameter :: f107 = 2.5300d-6
$ double precision, parameter :: f108 = 1.6746d-2
$ double precision, parameter :: f109 = 2.7427d+2
$ double precision, parameter :: f110 = 1.1076d-6
$ double precision, parameter :: f111 = 1.5675d-2
$ double precision, parameter :: f112 = 2.0801d-1
$ double precision, parameter :: f113 = 1.1460d-5
$ double precision, parameter :: f114 = 1.4246d-1
$ double precision, parameter :: f115 = 5.8061d-4
$ double precision, parameter :: f116 = 3.4381d-6
$ double precision, parameter :: f117 = 2.2535d-5
$ double precision, parameter :: f118 = 2.7953d0
$ double precision, parameter :: f119 = 3.2035d-7
$ double precision, parameter :: f120 = 5.1063d-4
$ double precision, parameter :: f121 = 3.7932d-7
$ double precision, parameter :: f122 = 2.1795d-4
$ double precision, parameter :: f123 = 3.1661d0
$ double precision, parameter :: f124 = 2.0524d+1
$ double precision, parameter :: f125 = 3.7758d-5
$ double precision, parameter :: f126 = 5.2292d-7
$ double precision, parameter :: f127 = 5.0463d+1
$ double precision, parameter :: f128 = 1.4695d+1
$ double precision, parameter :: f129 = 1.7518d-6
$ double precision, parameter :: f130 = 8.7280d-3
$ double precision, parameter :: f131 = 1.4698d-4
$ double precision, parameter :: f132 = 1.1933d-1
$ double precision, parameter :: f133 = 1.0462d-5
$ double precision, parameter :: f134 = 1.7391d-5
$ double precision, parameter :: f135 = 1.3544d-3
$ double precision, parameter :: f136 = 1.3931d+1
$ double precision, parameter :: f137 = 5.8956d-1
$ double precision, parameter :: f138 = 1.4328d-4
$ double precision, parameter :: f139 = 7.0771d-8
$ double precision, parameter :: f140 = 3.9959d-7
$ double precision, parameter :: f141 = 1.8134d+1
$ double precision, parameter :: f142 = 1.0452d-3
$ double precision, parameter :: f143 = 1.6879d+1
$ double precision, parameter :: f144 = 1.1592d-3
$ double precision, parameter :: f145 = 3.0380d-7
$ double precision, parameter :: f146 = 2.2455d0
$ double precision, parameter :: f147 = 9.8922d-8
$ double precision, parameter :: f148 = 1.0451d+2
$ double precision, parameter :: f149 = 3.1109d-8
$ double precision, parameter :: f150 = 3.5796d-3
$ double precision, parameter :: f151 = 1.2696d-4
$ double precision, parameter :: f152 = 8.7309d-3
$ double precision, parameter :: f153 = 3.8401d-6
$ double precision, parameter :: f154 = 6.0005d-6
$ double precision, parameter :: f155 = 7.5295d-8
$ double precision, parameter :: f156 = 1.4785d-5
$ double precision, parameter :: f157 = 6.8039d-7
$ double precision, parameter :: f158 = 1.5161d-4
$ double precision, parameter :: f159 = 7.5419d-5
$ double precision, parameter :: f160 = 1.4426d-2
$ double precision, parameter :: f161 = 4.8544d-6
$ double precision, parameter :: f162 = 1.3134d-4
$ double precision, parameter :: f163 = 6.6002d+1
$ double precision, parameter :: f164 = 2.0257d-7
$ double precision, parameter :: f165 = 1.8649d-1
$ double precision, parameter :: f166 = 7.0109d-5
$ double precision, parameter :: f167 = 7.0561d-7
$ double precision, parameter :: f168 = 7.6227d-7
$ double precision, parameter :: f169 = 2.5371d+2
$ double precision, parameter :: f170 = 1.4421d-1
$ double precision, parameter :: f171 = 1.1695d-4
$ double precision, parameter :: f172 = 1.6212d+2
$ double precision, parameter :: f173 = 2.6418d+1
$ double precision, parameter :: f174 = 1.5279d-3
$ double precision, parameter :: f175 = 2.2926d-8
$ double precision, parameter :: f176 = 1.5611d-2
$ double precision, parameter :: f177 = 1.1620d-5
$ double precision, parameter :: f178 = 1.0033d-1
$ double precision, parameter :: f179 = 1.2546d0
$ double precision, parameter :: f180 = 1.3336d-8
$ double precision, parameter :: f181 = 4.3107d-8
$ double precision, parameter :: f182 = 3.4546d+2
$ double precision, parameter :: f183 = 2.2720d-4
$ double precision, parameter :: f184 = 2.9439d-4
$ double precision, parameter :: f185 = 8.1622d-3
$ double precision, parameter :: f186 = 1.5183d-8
$ double precision, parameter :: f187 = 1.3034d-3
$ double precision, parameter :: f188 = 5.5717d-4
$ double precision, parameter :: f189 = 1.2679d+1
$ double precision, parameter :: f190 = 5.3363d-3
$ double precision, parameter :: f191 = 1.3762d+2
$ double precision, parameter :: f192 = 3.1610d-5
$ double precision, parameter :: f193 = 1.7001d-8
$ double precision, parameter :: f194 = 1.8390d-6
$ double precision, parameter :: f195 = 2.5131d-7
$ double precision, parameter :: f196 = 1.3512d+1
$ double precision, parameter :: f197 = 4.2900d+2
$ double precision, parameter :: f198 = 8.0550d-7
$ double precision, parameter :: f199 = 4.7602d-3
$ double precision, parameter :: f200 = 5.5127d-8
$ double precision, parameter :: f201 = 1.1605d-7
$ double precision, parameter :: f202 = 6.0444d0
$ double precision, parameter :: f203 = 2.2260d-2
$ double precision, parameter :: f204 = 8.8339d+2
$ double precision, parameter :: f205 = 1.6367d-5
$ double precision, parameter :: f206 = 1.5900d-6
$ double precision, parameter :: f207 = 1.1271d-1
$ double precision, parameter :: f208 = 2.4805d-3
$ double precision, parameter :: f209 = 1.0078d+2
$ double precision, parameter :: f210 = 1.6543d-1
$ double precision, parameter :: f211 = 1.5336d-8
$ double precision, parameter :: f212 = 5.1692d+2
$ double precision, parameter :: f213 = 3.7883d-1
$ double precision, parameter :: f214 = 2.1953d-7
$ double precision, parameter :: f215 = 2.4203d-6
$ double precision, parameter :: f216 = 9.7650d-5
$ double precision, parameter :: f217 = 4.1788d+2
$ double precision, parameter :: f218 = 2.0762d-4
$ double precision, parameter :: f219 = 1.7399d-3
$ double precision, parameter :: f220 = 7.4598d0
$ double precision, parameter :: f221 = 5.9197d-8
$ double precision, parameter :: f222 = 1.1061d+2
$ double precision, parameter :: f223 = 2.1843d+1
$ double precision, parameter :: f224 = 1.5363d-6
$ double precision, parameter :: f225 = 1.3184d-1
$ double precision, parameter :: f226 = 7.4639d-5
$ double precision, parameter :: f227 = 1.8826d-1
$ double precision, parameter :: f228 = 1.2815d+1
$ double precision, parameter :: f229 = 7.7679d+2
$ double precision, parameter :: f230 = 1.2399d-7
$ double precision, parameter :: f231 = 6.5498d+2
$ double precision, parameter :: f232 = 4.3148d-7
$ double precision, parameter :: f233 = 1.2752d-7
$ double precision, parameter :: f234 = 2.1642d-5
$ double precision, parameter :: f235 = 1.6787d-1
$ double precision, parameter :: f236 = 1.7031d-1
$ double precision, parameter :: f237 = 3.6540d+1
$ double precision, parameter :: f238 = 7.8554d+1
$ double precision, parameter :: f239 = 2.5046d+2
$ double precision, parameter :: f240 = 1.2538d-5
$ double precision, parameter :: f241 = 4.4576d+1
$ double precision, parameter :: f242 = 2.8034d-7
$ double precision, parameter :: f243 = 5.5851d-2
$ double precision, parameter :: f244 = 2.5387d-8
$ double precision, parameter :: f245 = 1.8835d-5
$ double precision, parameter :: f246 = 1.4749d+2
$ double precision, parameter :: f247 = 1.0326d+1
$ double precision, parameter :: f248 = 8.7097d-7
$ double precision, parameter :: f249 = 3.5277d-2
$ double precision, parameter :: f250 = 1.8924d+2
$ double precision, parameter :: f251 = 7.1353d-5
$ double precision, parameter :: f252 = 2.1345d-7
$ double precision, parameter :: f253 = 1.4692d-6
$ double precision, parameter :: f254 = 3.9860d+1
$ double precision, parameter :: f255 = 1.7839d-3
$ double precision, parameter :: f256 = 2.5554d+1
$ double precision, parameter :: f257 = 1.3717d-4
$ double precision, parameter :: f258 = 1.7322d+2
$ double precision, parameter :: f259 = 5.3291d-6
$ double precision, parameter :: f260 = 6.5287d+1
$ double precision, parameter :: f261 = 2.7054d-1
$ double precision, parameter :: f262 = 2.7725d-8
$ double precision, parameter :: f263 = 1.3157d-4
$ double precision, parameter :: f264 = 5.0710d-2
$ double precision, parameter :: f265 = 1.8943d+2
$ double precision, parameter :: f266 = 9.9384d-8
$ double precision, parameter :: f267 = 1.8581d-4
$ double precision, parameter :: f268 = 1.0381d+2
$ double precision, parameter :: f269 = 1.0035d-1
$ double precision, parameter :: f270 = 4.0327d+1
$ double precision, parameter :: f271 = 6.4397d-5
$ double precision, parameter :: f272 = 2.0581d-5
$ double precision, parameter :: f273 = 4.9964d-7
$ double precision, parameter :: f274 = 2.5568d-1
$ double precision, parameter :: f275 = 5.3008d-2
$ double precision, parameter :: f276 = 1.5040d-5
$ double precision, parameter :: f277 = 1.3448d-7
$ double precision, parameter :: f278 = 1.3810d-5
$ double precision, parameter :: f279 = 4.6946d-5
$ double precision, parameter :: f280 = 2.3754d-6
$ double precision, parameter :: f281 = 1.1421d+1
$ double precision, parameter :: f282 = 1.9139d-6
$ double precision, parameter :: f283 = 4.5796d-6
$ double precision, parameter :: f284 = 1.6321d0
$ double precision, parameter :: f285 = 3.6799d-6
$ double precision, parameter :: f286 = 2.8806d-2
$ double precision, parameter :: f287 = 3.3062d+2
$ double precision, parameter :: f288 = 1.6991d+1
$ double precision, parameter :: f289 = 3.7697d-8
$ double precision, parameter :: f290 = 1.3036d-6
$ double precision, parameter :: f291 = 2.7406d+2
$ double precision, parameter :: f292 = 1.1515d-7
$ double precision, parameter :: f293 = 6.6360d-2
$ double precision, parameter :: f294 = 3.7993d-7
$ double precision, parameter :: f295 = 1.8463d-1
$ double precision, parameter :: f296 = 2.1569d-7
$ double precision, parameter :: f297 = 5.8293d-2
$ double precision, parameter :: f298 = 5.3846d+2
$ double precision, parameter :: f299 = 6.3008d-3
$ double precision, parameter :: f300 = 3.3640d0
$ double precision, parameter :: f301 = 5.4652d-2
$ double precision, parameter :: f302 = 2.5424d-5
$ double precision, parameter :: f303 = 1.0865d-4
$ double precision, parameter :: f304 = 4.6873d-1
$ double precision, parameter :: f305 = 1.1186d-2
$ double precision, parameter :: f306 = 1.6610d-1
$ double precision, parameter :: f307 = 7.5374d-7
$ double precision, parameter :: f308 = 2.0458d+2
$ double precision, parameter :: f309 = 3.1190d+1
$ double precision, parameter :: f310 = 1.1843d-2
$ double precision, parameter :: f311 = 4.8060d-2
$ double precision, parameter :: f312 = 1.3010d-3
$ double precision, parameter :: f313 = 1.2448d-5
$ double precision, parameter :: f314 = 1.6893d-2
$ double precision, parameter :: f315 = 2.8487d-2

# Electron Collision Reaction
e + CH4 => e + CH4(v24)		! f0 * Bolsig+ CH4 -> CH4(v24)
e + CH4 => e + CH4(v13)		! f1 * Bolsig+ CH4 -> CH4(v13)
e + C2H6 => e + C2H6(v24)		! f2 * Bolsig+ C2H6 -> C2H6(v24)
e + C2H6 => e + C2H6(v13)		! f3 * Bolsig+ C2H6 -> C2H6(v13)
e + C2H4 => e + C2H4(v1)		! f4 * Bolsig+ C2H4 -> C2H4(v1)
e + C2H4 => e + C2H4(v2)		! f5 * Bolsig+ C2H4 -> C2H4(v2)
e + C2H2 => e + C2H2(v5)		! f6 * Bolsig+ C2H2 -> C2H2(v5)
e + C2H2 => e + C2H2(v2)		! f7 * Bolsig+ C2H2 -> C2H2(v2)
e + C2H2 => e + C2H2(v13)		! f8 * Bolsig+ C2H2 -> C2H2(v13)
e + C3H8 => e + C3H8(v1)		! f9 * Bolsig+ C3H8 -> C3H8(v1)
e + C3H8 => e + C3H8(v2)		! f10 * Bolsig+ C3H8 -> C3H8(v2)
e + C3H6 => e + C3H6(v)		! f11 * Bolsig+ C3H6 -> C3H6(v)
e + CH4 => e + CH3 + H		! f12 * Bolsig+ CH4 -> CH3 H
e + CH4(v24) => e + CH3 + H		! f12 * Bolsig+ CH4(v24) -> CH3 H
e + CH4(v13) => e + CH3 + H		! f12 * Bolsig+ CH4(v13) -> CH3 H
e + CH4 => e + CH2 + H2		! f13 * Bolsig+ CH4 -> CH2 H2
e + CH4(v24) => e + CH2 + H2		! f13 * Bolsig+ CH4(v24) -> CH2 H2
e + CH4(v13) => e + CH2 + H2		! f13 * Bolsig+ CH4(v13) -> CH2 H2
e + CH4 => e + CH + H2 + H		! f14 * Bolsig+ CH4 -> CH H2 H
e + CH4(v24) => e + CH + H2 + H		! f14 * Bolsig+ CH4(v24) -> CH H2 H
e + CH4(v13) => e + CH + H2 + H		! f14 * Bolsig+ CH4(v13) -> CH H2 H
e + CH4 => e + C + H2 + H2		! f15 * Bolsig+ CH4 -> C H2 H2
e + CH4(v24) => e + C + H2 + H2		! f15 * Bolsig+ CH4(v24) -> C H2 H2
e + CH4(v13) => e + C + H2 + H2		! f15 * Bolsig+ CH4(v13) -> C H2 H2
e + CH3 => e + CH2 + H		! f16 * Bolsig+ CH3 -> CH2 H
e + CH3 => e + CH + H2		! f17 * Bolsig+ CH3 -> CH H2
e + CH3 => e + C + H2 + H		! f18 * Bolsig+ CH3 -> C H2 H
e + CH2 => e + CH + H		! f19 * Bolsig+ CH2 -> CH H
e + CH2 => e + C + H2		! f20 * Bolsig+ CH2 -> C H2
e + CH2 => e + C + H + H		! f21 * Bolsig+ CH2 -> C H H
e + CH => e + C + H		! f22 * Bolsig+ CH -> C H
e + CH4 => e + e + CH4^+		! f23 * Bolsig+ CH4 -> CH4^+
e + CH4(v24) => e + e + CH4^+		! f23 * Bolsig+ CH4(v24) -> CH4^+
e + CH4(v13) => e + e + CH4^+		! f23 * Bolsig+ CH4(v13) -> CH4^+
e + CH4 => e + e + H + CH3^+		! f24 * Bolsig+ CH4 -> H CH3^+
e + CH4(v24) => e + e + H + CH3^+		! f24 * Bolsig+ CH4(v24) -> H CH3^+
e + CH4(v13) => e + e + H + CH3^+		! f24 * Bolsig+ CH4(v13) -> H CH3^+
e + CH4 => e + e + H2 + CH2^+		! f25 * Bolsig+ CH4 -> H2 CH2^+
e + CH4(v24) => e + e + H2 + CH2^+		! f25 * Bolsig+ CH4(v24) -> H2 CH2^+
e + CH4(v13) => e + e + H2 + CH2^+		! f25 * Bolsig+ CH4(v13) -> H2 CH2^+
e + CH4 => e + e + H2 + H + CH^+		! f26 * Bolsig+ CH4 -> H2 H CH^+
e + CH4(v24) => e + e + H2 + H + CH^+		! f26 * Bolsig+ CH4(v24) -> H2 H CH^+
e + CH4(v13) => e + e + H2 + H + CH^+		! f26 * Bolsig+ CH4(v13) -> H2 H CH^+
e + CH3 => e + e + CH3^+		! f27 * Bolsig+ CH3 -> CH3^+
e + CH3 => e + e + H + CH2^+		! f28 * Bolsig+ CH3 -> H CH2^+
e + CH3 => e + e + H2 + CH^+		! f29 * Bolsig+ CH3 -> H2 CH^+
e + CH2 => e + e + CH2^+		! f30 * Bolsig+ CH2 -> CH2^+
e + CH2 => e + e + H + CH^+		! f31 * Bolsig+ CH2 -> H CH^+
e + CH => e + e + CH^+		! f32 * Bolsig+ CH -> CH^+
e + C2H6 => e + C2H5 + H		! f33 * Bolsig+ C2H6 -> C2H5 H
e + C2H6(v24) => e + C2H5 + H		! f33 * Bolsig+ C2H6(v24) -> C2H5 H
e + C2H6(v13) => e + C2H5 + H		! f33 * Bolsig+ C2H6(v13) -> C2H5 H
e + C2H6 => e + C2H4 + H2		! f34 * Bolsig+ C2H6 -> C2H4 H2
e + C2H6(v24) => e + C2H4 + H2		! f34 * Bolsig+ C2H6(v24) -> C2H4 H2
e + C2H6(v13) => e + C2H4 + H2		! f34 * Bolsig+ C2H6(v13) -> C2H4 H2
e + C2H6 => e + C2H3 + H2 + H		! f35 * Bolsig+ C2H6 -> C2H3 H2 H
e + C2H6(v24) => e + C2H3 + H2 + H		! f35 * Bolsig+ C2H6(v24) -> C2H3 H2 H
e + C2H6(v13) => e + C2H3 + H2 + H		! f35 * Bolsig+ C2H6(v13) -> C2H3 H2 H
e + C2H6 => e + C2H2 + H2 + H2		! f36 * Bolsig+ C2H6 -> C2H2 H2 H2
e + C2H6(v24) => e + C2H2 + H2 + H2		! f36 * Bolsig+ C2H6(v24) -> C2H2 H2 H2
e + C2H6(v13) => e + C2H2 + H2 + H2		! f36 * Bolsig+ C2H6(v13) -> C2H2 H2 H2
e + C2H6 => e + CH4 + CH2		! f37 * Bolsig+ C2H6 -> CH4 CH2
e + C2H6(v24) => e + CH4 + CH2		! f37 * Bolsig+ C2H6(v24) -> CH4 CH2
e + C2H6(v13) => e + CH4 + CH2		! f37 * Bolsig+ C2H6(v13) -> CH4 CH2
e + C2H6 => e + CH3 + CH3		! f38 * Bolsig+ C2H6 -> CH3 CH3
e + C2H6(v24) => e + CH3 + CH3		! f38 * Bolsig+ C2H6(v24) -> CH3 CH3
e + C2H6(v13) => e + CH3 + CH3		! f38 * Bolsig+ C2H6(v13) -> CH3 CH3
e + C2H5 => e + C2H4 + H		! f39 * Bolsig+ C2H5 -> C2H4 H
e + C2H5 => e + C2H3 + H2		! f40 * Bolsig+ C2H5 -> C2H3 H2
e + C2H5 => e + C2H3 + H + H		! f41 * Bolsig+ C2H5 -> C2H3 H H
e + C2H5 => e + C2H2 + H2 + H		! f42 * Bolsig+ C2H5 -> C2H2 H2 H
e + C2H5 => e + CH4 + CH		! f43 * Bolsig+ C2H5 -> CH4 CH
e + C2H5 => e + CH3 + CH2		! f44 * Bolsig+ C2H5 -> CH3 CH2
e + C2H4 => e + C2H3 + H		! f45 * Bolsig+ C2H4 -> C2H3 H
e + C2H4(v1) => e + C2H3 + H		! f45 * Bolsig+ C2H4(v1) -> C2H3 H
e + C2H4(v2) => e + C2H3 + H		! f45 * Bolsig+ C2H4(v2) -> C2H3 H
e + C2H4 => e + C2H2 + H2		! f46 * Bolsig+ C2H4 -> C2H2 H2
e + C2H4(v1) => e + C2H2 + H2		! f46 * Bolsig+ C2H4(v1) -> C2H2 H2
e + C2H4(v2) => e + C2H2 + H2		! f46 * Bolsig+ C2H4(v2) -> C2H2 H2
e + C2H4 => e + C2H2 + H + H		! f47 * Bolsig+ C2H4 -> C2H2 H H
e + C2H4(v1) => e + C2H2 + H + H		! f47 * Bolsig+ C2H4(v1) -> C2H2 H H
e + C2H4(v2) => e + C2H2 + H + H		! f47 * Bolsig+ C2H4(v2) -> C2H2 H H
e + C2H4 => e + CH3 + CH		! f48 * Bolsig+ C2H4 -> CH3 CH
e + C2H4(v1) => e + CH3 + CH		! f48 * Bolsig+ C2H4(v1) -> CH3 CH
e + C2H4(v2) => e + CH3 + CH		! f48 * Bolsig+ C2H4(v2) -> CH3 CH
e + C2H4 => e + CH2 + CH2		! f49 * Bolsig+ C2H4 -> CH2 CH2
e + C2H4(v1) => e + CH2 + CH2		! f49 * Bolsig+ C2H4(v1) -> CH2 CH2
e + C2H4(v2) => e + CH2 + CH2		! f49 * Bolsig+ C2H4(v2) -> CH2 CH2
e + C2H3 => e + C2H2 + H		! f50 * Bolsig+ C2H3 -> C2H2 H
e + C2H3 => e + CH2 + CH		! f51 * Bolsig+ C2H3 -> CH2 CH
e + C2H2 => e + CH + CH		! f52 * Bolsig+ C2H2 -> CH CH
e + C2H2(v5) => e + CH + CH		! f52 * Bolsig+ C2H2(v5) -> CH CH
e + C2H2(v2) => e + CH + CH		! f52 * Bolsig+ C2H2(v2) -> CH CH
e + C2H2(v13) => e + CH + CH		! f52 * Bolsig+ C2H2(v13) -> CH CH
e + C2H6 => e + e + C2H6^+		! f53 * Bolsig+ C2H6 -> C2H6^+
e + C2H6(v24) => e + e + C2H6^+		! f53 * Bolsig+ C2H6(v24) -> C2H6^+
e + C2H6(v13) => e + e + C2H6^+		! f53 * Bolsig+ C2H6(v13) -> C2H6^+
e + C2H6 => e + e + H + C2H5^+		! f54 * Bolsig+ C2H6 -> H C2H5^+
e + C2H6(v24) => e + e + H + C2H5^+		! f54 * Bolsig+ C2H6(v24) -> H C2H5^+
e + C2H6(v13) => e + e + H + C2H5^+		! f54 * Bolsig+ C2H6(v13) -> H C2H5^+
e + C2H6 => e + e + H2 + C2H4^+		! f55 * Bolsig+ C2H6 -> H2 C2H4^+
e + C2H6(v24) => e + e + H2 + C2H4^+		! f55 * Bolsig+ C2H6(v24) -> H2 C2H4^+
e + C2H6(v13) => e + e + H2 + C2H4^+		! f55 * Bolsig+ C2H6(v13) -> H2 C2H4^+
e + C2H6 => e + e + H2 + H + C2H3^+		! f56 * Bolsig+ C2H6 -> H2 H C2H3^+
e + C2H6(v24) => e + e + H2 + H + C2H3^+		! f56 * Bolsig+ C2H6(v24) -> H2 H C2H3^+
e + C2H6(v13) => e + e + H2 + H + C2H3^+		! f56 * Bolsig+ C2H6(v13) -> H2 H C2H3^+
e + C2H6 => e + e + H2 + H2 + C2H2^+		! f57 * Bolsig+ C2H6 -> H2 H2 C2H2^+
e + C2H6(v24) => e + e + H2 + H2 + C2H2^+		! f57 * Bolsig+ C2H6(v24) -> H2 H2 C2H2^+
e + C2H6(v13) => e + e + H2 + H2 + C2H2^+		! f57 * Bolsig+ C2H6(v13) -> H2 H2 C2H2^+
e + C2H6 => e + e + CH3 + CH3^+		! f58 * Bolsig+ C2H6 -> CH3 CH3^+
e + C2H6(v24) => e + e + CH3 + CH3^+		! f58 * Bolsig+ C2H6(v24) -> CH3 CH3^+
e + C2H6(v13) => e + e + CH3 + CH3^+		! f58 * Bolsig+ C2H6(v13) -> CH3 CH3^+
e + C2H6 => e + e + CH4 + CH2^+		! f59 * Bolsig+ C2H6 -> CH4 CH2^+
e + C2H6(v24) => e + e + CH4 + CH2^+		! f59 * Bolsig+ C2H6(v24) -> CH4 CH2^+
e + C2H6(v13) => e + e + CH4 + CH2^+		! f59 * Bolsig+ C2H6(v13) -> CH4 CH2^+
e + C2H5 => e + e + C2H5^+		! f60 * Bolsig+ C2H5 -> C2H5^+
e + C2H5 => e + e + H + C2H4^+		! f61 * Bolsig+ C2H5 -> H C2H4^+
e + C2H5 => e + e + H2 + C2H3^+		! f62 * Bolsig+ C2H5 -> H2 C2H3^+
e + C2H5 => e + e + H2 + H + C2H2^+		! f63 * Bolsig+ C2H5 -> H2 H C2H2^+
e + C2H5 => e + e + CH2 + CH3^+		! f64 * Bolsig+ C2H5 -> CH2 CH3^+
e + C2H5 => e + e + CH3 + CH2^+		! f65 * Bolsig+ C2H5 -> CH3 CH2^+
e + C2H5 => e + e + CH4 + CH^+		! f66 * Bolsig+ C2H5 -> CH4 CH^+
e + C2H4 => e + e + C2H4^+		! f67 * Bolsig+ C2H4 -> C2H4^+
e + C2H4(v1) => e + e + C2H4^+		! f67 * Bolsig+ C2H4(v1) -> C2H4^+
e + C2H4(v2) => e + e + C2H4^+		! f67 * Bolsig+ C2H4(v2) -> C2H4^+
e + C2H4 => e + e + H + C2H3^+		! f68 * Bolsig+ C2H4 -> H C2H3^+
e + C2H4(v1) => e + e + H + C2H3^+		! f68 * Bolsig+ C2H4(v1) -> H C2H3^+
e + C2H4(v2) => e + e + H + C2H3^+		! f68 * Bolsig+ C2H4(v2) -> H C2H3^+
e + C2H4 => e + e + CH + CH3^+		! f69 * Bolsig+ C2H4 -> CH CH3^+
e + C2H4(v1) => e + e + CH + CH3^+		! f69 * Bolsig+ C2H4(v1) -> CH CH3^+
e + C2H4(v2) => e + e + CH + CH3^+		! f69 * Bolsig+ C2H4(v2) -> CH CH3^+
e + C2H4 => e + e + CH2 + CH2^+		! f70 * Bolsig+ C2H4 -> CH2 CH2^+
e + C2H4(v1) => e + e + CH2 + CH2^+		! f70 * Bolsig+ C2H4(v1) -> CH2 CH2^+
e + C2H4(v2) => e + e + CH2 + CH2^+		! f70 * Bolsig+ C2H4(v2) -> CH2 CH2^+
e + C2H4 => e + e + CH3 + CH^+		! f71 * Bolsig+ C2H4 -> CH3 CH^+
e + C2H4(v1) => e + e + CH3 + CH^+		! f71 * Bolsig+ C2H4(v1) -> CH3 CH^+
e + C2H4(v2) => e + e + CH3 + CH^+		! f71 * Bolsig+ C2H4(v2) -> CH3 CH^+
e + C2H3 => e + e + C2H3^+		! f72 * Bolsig+ C2H3 -> C2H3^+
e + C2H3 => e + e + H + C2H2^+		! f73 * Bolsig+ C2H3 -> H C2H2^+
e + C2H3 => e + e + CH + CH2^+		! f74 * Bolsig+ C2H3 -> CH CH2^+
e + C2H3 => e + e + CH2 + CH^+		! f75 * Bolsig+ C2H3 -> CH2 CH^+
e + C2H3 => e + e + C2H2 + H^+		! f76 * Bolsig+ C2H3 -> C2H2 H^+
e + C2H2 => e + e + C2H2^+		! f77 * Bolsig+ C2H2 -> C2H2^+
e + C2H2(v5) => e + e + C2H2^+		! f77 * Bolsig+ C2H2(v5) -> C2H2^+
e + C2H2(v2) => e + e + C2H2^+		! f77 * Bolsig+ C2H2(v2) -> C2H2^+
e + C2H2(v13) => e + e + C2H2^+		! f77 * Bolsig+ C2H2(v13) -> C2H2^+
e + C2H2 => e + e + CH + CH^+		! f78 * Bolsig+ C2H2 -> CH CH^+
e + C2H2(v5) => e + e + CH + CH^+		! f78 * Bolsig+ C2H2(v5) -> CH CH^+
e + C2H2(v2) => e + e + CH + CH^+		! f78 * Bolsig+ C2H2(v2) -> CH CH^+
e + C2H2(v13) => e + e + CH + CH^+		! f78 * Bolsig+ C2H2(v13) -> CH CH^+
e + C3H8 => e + C3H7 + H		! f79 * Bolsig+ C3H8 -> C3H7 H
e + C3H8(v1) => e + C3H7 + H		! f79 * Bolsig+ C3H8(v1) -> C3H7 H
e + C3H8(v2) => e + C3H7 + H		! f79 * Bolsig+ C3H8(v2) -> C3H7 H
e + C3H8 => e + C3H6 + H2		! f80 * Bolsig+ C3H8 -> C3H6 H2
e + C3H8(v1) => e + C3H6 + H2		! f80 * Bolsig+ C3H8(v1) -> C3H6 H2
e + C3H8(v2) => e + C3H6 + H2		! f80 * Bolsig+ C3H8(v2) -> C3H6 H2
e + C3H7 => e + C3H6 + H		! f81 * Bolsig+ C3H7 -> C3H6 H
e + C3H8 => e + e + C3H8^+		! f82 * Bolsig+ C3H8 -> C3H8^+
e + C3H8(v1) => e + e + C3H8^+		! f82 * Bolsig+ C3H8(v1) -> C3H8^+
e + C3H8(v2) => e + e + C3H8^+		! f82 * Bolsig+ C3H8(v2) -> C3H8^+
e + C3H8 => e + e + H + C3H7^+		! f83 * Bolsig+ C3H8 -> H C3H7^+
e + C3H8(v1) => e + e + H + C3H7^+		! f83 * Bolsig+ C3H8(v1) -> H C3H7^+
e + C3H8(v2) => e + e + H + C3H7^+		! f83 * Bolsig+ C3H8(v2) -> H C3H7^+
e + C3H8 => e + e + H2 + C3H6^+		! f84 * Bolsig+ C3H8 -> H2 C3H6^+
e + C3H8(v1) => e + e + H2 + C3H6^+		! f84 * Bolsig+ C3H8(v1) -> H2 C3H6^+
e + C3H8(v2) => e + e + H2 + C3H6^+		! f84 * Bolsig+ C3H8(v2) -> H2 C3H6^+
e + C3H7 => e + e + C3H7^+		! f85 * Bolsig+ C3H7 -> C3H7^+
e + C3H7 => e + e + H + C3H6^+		! f86 * Bolsig+ C3H7 -> H C3H6^+
e + C3H6 => e + e + C3H6^+		! f87 * Bolsig+ C3H6 -> C3H6^+
e + C3H6(v) => e + e + C3H6^+		! f87 * Bolsig+ C3H6(v) -> C3H6^+
e + C3H6 => e + C2H2 + CH4		! f88 * Bolsig+ C3H6 -> C2H2 CH4
e + C3H6(v) => e + C2H2 + CH4		! f88 * Bolsig+ C3H6(v) -> C2H2 CH4
e + C3H6 => e + e + C2H2 + CH4^+		! f89 * Bolsig+ C3H6 -> C2H2 CH4^+
e + C3H6(v) => e + e + C2H2 + CH4^+		! f89 * Bolsig+ C3H6(v) -> C2H2 CH4^+

# Ion Recombination Reaction
e + e + CH^+ => e + CH		! f90 * 1.00d0
e + e + CH2^+ => e + CH2		! f91 * 1.00d0
e + e + CH3^+ => e + CH3		! f92 * 1.00d0
e + e + CH4^+ => e + CH4		! f93 * 1.00d0
e + e + C2H2^+ => e + C2H2		! f94 * 1.00d0
e + e + C2H3^+ => e + C2H3		! f95 * 1.00d0
e + e + C2H4^+ => e + C2H4		! f96 * 1.00d0
e + e + C2H5^+ => e + C2H5		! f97 * 1.00d0
e + e + C2H6^+ => e + C2H6		! f98 * 1.00d0
e + e + C3H6^+ => e + C3H6		! f99 * 1.00d0
e + e + C3H7^+ => e + C3H7		! f100 * 1.00d0
e + e + C3H8^+ => e + C3H8		! f101 * 1.00d0

# Gas Phase Reaction
e + CH4^+ => CH3 + H		! f102 * 1.18d-08 * (300./Tgas)**0.5
e + CH4^+ => CH2 + H + H		! f103 * 2.42d-08 * (300./Tgas)**0.5
e + CH4^+ => CH + H2 + H		! f104 * 1.41d-08 * (300./Tgas)**0.5
e + CH3^+ => CH2 + H		! f105 * 2.25d-08 * (300./Tgas)**0.5
e + CH3^+ => CH + H2		! f106 * 7.88d-09 * (300./Tgas)**0.5
e + CH3^+ => CH + H + H		! f107 * 9.00d-09 * (300./Tgas)**0.5
e + CH3^+ => C + H2 + H		! f108 * 1.69d-08 * (300./Tgas)**0.5
e + CH2^+ => CH + H		! f109 * 1.00d-08 * (300./Tgas)**0.5
e + CH2^+ => C + H2		! f110 * 4.82d-09 * (300./Tgas)**0.5
e + CH2^+ => C + H + H		! f111 * 2.53d-08 * (300./Tgas)**0.5
e + CH^+ => C + H		! f112 * 3.23d-08 * (300./Tgas)**0.42
e + C2H6^+ => C2H5 + H		! f113 * 2.19d-08 * (300./Tgas)**0.71
e + C2H6^+ => C2H4 + H + H		! f114 * 3.36d-08 * (300./Tgas)**0.71
e + C2H5^+ => C2H4 + H		! f115 * 7.70d-09 * (300./Tgas)**0.71
e + C2H5^+ => C2H3 + H + H		! f116 * 1.92d-08 * (300./Tgas)**0.71
e + C2H5^+ => C2H2 + H2 + H		! f117 * 1.60d-08 * (300./Tgas)**0.71
e + C2H5^+ => C2H2 + H + H + H		! f118 * 8.98d-09 * (300./Tgas)**0.71
e + C2H5^+ => CH3 + CH2		! f119 * 9.62d-09 * (300./Tgas)**0.71
e + C2H4^+ => C2H3 + H		! f120 * 8.29d-09 * (300./Tgas)**0.71
e + C2H4^+ => C2H2 + H + H		! f121 * 3.43d-08 * (300./Tgas)**0.71
e + C2H3^+ => C2H2 + H		! f122 * 1.34d-08 * (300./Tgas)**0.71
e + C2H2^+ => CH + CH		! f123 * 4.87d-09 * (300./Tgas)**0.71
e + H2^+ => H + H		! f124 * 3.17d21/(6.022d23 * Te**4.5)
e + H3^+ => H + H2		! f125 * 3.17d21/(6.022d23 * Te**4.5)
H2 + H2^+ => H + H3^+		! f126 * 2.11d-09
C2H6 + CH4^+ => CH4 + H2 + C2H4^+		! f127 * 1.91d-9
C2H6(v24) + CH4^+ => CH4 + H2 + C2H4^+		! f127 * 1.91d-9
C2H6(v13) + CH4^+ => CH4 + H2 + C2H4^+		! f127 * 1.91d-9
C2H4 + CH4^+ => CH3 + C2H5^+		! f128 * 4.23d-10