ELEMENTS
e C H
END

SPECIES
e C CH CH^+ CH2 CH2^+ CH3 CH3^+ CH4 CH4(v13) CH4(v24) CH4^+ C2H2 C2H2(v13) C2H2(v2) C2H2(v5) C2H2^+ C2H3 C2H3^+ C2H4 C2H4(v1) C2H4(v2) C2H4^+ C2H5 C2H5^+
C2H6 C2H6(v13) C2H6(v24) C2H6^+ C3H5 C3H6 C3H6(v) C3H6^+ C3H7 C3H7^+ C3H8 C3H8(v1) C3H8(v2) C3H8^+ C4H9 C4H9H C2H C5H12 H H2 H2^+ H3^+ H^+
END

BOLSIG
CH CH2 CH3 CH4 CH4(v13) CH4(v24) C2H2 C2H2(v13) C2H2(v2) C2H2(v5) C2H3 C2H4 C2H4(v1) C2H4(v2) C2H5 C2H6 C2H6(v13) C2H6(v24) C3H6 C3H6(v) C3H7 C3H8 C3H8(v1) C3H8(v2)
END

REACTIONS
# Gas Constant
$ double precision, parameter :: R = 8.314d-3

# Compensation Parameters
$ double precision, parameter :: f0 = 1.7782d-8
$ double precision, parameter :: f1 = 1.0197d-8
$ double precision, parameter :: f2 = 5.7832d+1
$ double precision, parameter :: f3 = 2.5249d-5
$ double precision, parameter :: f4 = 5.3547d+1
$ double precision, parameter :: f5 = 8.4933d-1
$ double precision, parameter :: f6 = 2.7561d-3
$ double precision, parameter :: f7 = 5.7783d+1
$ double precision, parameter :: f8 = 2.1157d-1
$ double precision, parameter :: f9 = 1.9660d+1
$ double precision, parameter :: f10 = 1.9184d0
$ double precision, parameter :: f11 = 1.3712d-6
$ double precision, parameter :: f12 = 5.7827d-1
$ double precision, parameter :: f13 = 6.9351d-7
$ double precision, parameter :: f14 = 3.1124d0
$ double precision, parameter :: f15 = 7.4967d+1
$ double precision, parameter :: f16 = 1.1566d-6
$ double precision, parameter :: f17 = 7.6578d-8
$ double precision, parameter :: f18 = 5.1788d-4
$ double precision, parameter :: f19 = 1.9420d-3
$ double precision, parameter :: f20 = 5.7700d+2
$ double precision, parameter :: f21 = 6.0845d-3
$ double precision, parameter :: f22 = 3.8473d-7
$ double precision, parameter :: f23 = 2.3991d+2
$ double precision, parameter :: f24 = 4.9846d+2
$ double precision, parameter :: f25 = 1.8417d-6
$ double precision, parameter :: f26 = 5.1249d-6
$ double precision, parameter :: f27 = 2.5798d-6
$ double precision, parameter :: f28 = 2.8333d0
$ double precision, parameter :: f29 = 9.4484d0
$ double precision, parameter :: f30 = 1.7502d+2
$ double precision, parameter :: f31 = 2.5735d+1
$ double precision, parameter :: f32 = 4.6532d-2
$ double precision, parameter :: f33 = 5.2992d0
$ double precision, parameter :: f34 = 2.4466d-7
$ double precision, parameter :: f35 = 2.7619d+1
$ double precision, parameter :: f36 = 2.2730d0
$ double precision, parameter :: f37 = 8.4017d0
$ double precision, parameter :: f38 = 2.6782d-4
$ double precision, parameter :: f39 = 7.9856d0
$ double precision, parameter :: f40 = 7.0448d-4
$ double precision, parameter :: f41 = 1.7875d-5
$ double precision, parameter :: f42 = 7.6058d-6
$ double precision, parameter :: f43 = 5.6614d-4
$ double precision, parameter :: f44 = 2.3518d-3
$ double precision, parameter :: f45 = 2.6237d-4
$ double precision, parameter :: f46 = 2.3103d-5
$ double precision, parameter :: f47 = 2.6661d+1
$ double precision, parameter :: f48 = 7.4421d0
$ double precision, parameter :: f49 = 1.3206d-7
$ double precision, parameter :: f50 = 8.7776d-6
$ double precision, parameter :: f51 = 1.7571d-3
$ double precision, parameter :: f52 = 4.4866d0
$ double precision, parameter :: f53 = 2.4311d-6
$ double precision, parameter :: f54 = 1.6742d-5
$ double precision, parameter :: f55 = 1.9371d-2
$ double precision, parameter :: f56 = 3.5401d-5
$ double precision, parameter :: f57 = 6.9735d-8
$ double precision, parameter :: f58 = 3.3850d0
$ double precision, parameter :: f59 = 6.5200d-1
$ double precision, parameter :: f60 = 1.8551d-3
$ double precision, parameter :: f61 = 4.0108d+2
$ double precision, parameter :: f62 = 2.0878d-1
$ double precision, parameter :: f63 = 9.4028d-5
$ double precision, parameter :: f64 = 1.6613d-2
$ double precision, parameter :: f65 = 6.8778d-8
$ double precision, parameter :: f66 = 3.7403d+1
$ double precision, parameter :: f67 = 6.1300d-2
$ double precision, parameter :: f68 = 6.4453d+1
$ double precision, parameter :: f69 = 1.3267d-5
$ double precision, parameter :: f70 = 4.0336d+1
$ double precision, parameter :: f71 = 1.1762d-5
$ double precision, parameter :: f72 = 4.8868d-5
$ double precision, parameter :: f73 = 1.4508d+1
$ double precision, parameter :: f74 = 2.5856d+1
$ double precision, parameter :: f75 = 1.2052d-8
$ double precision, parameter :: f76 = 3.8314d-4
$ double precision, parameter :: f77 = 1.9815d-4
$ double precision, parameter :: f78 = 2.6821d+1
$ double precision, parameter :: f79 = 9.1188d-7
$ double precision, parameter :: f80 = 1.6145d0
$ double precision, parameter :: f81 = 6.8425d+1
$ double precision, parameter :: f82 = 2.5762d-5
$ double precision, parameter :: f83 = 4.7941d-5
$ double precision, parameter :: f84 = 1.8877d-5
$ double precision, parameter :: f85 = 6.2345d-7
$ double precision, parameter :: f86 = 2.9592d-5
$ double precision, parameter :: f87 = 3.7362d-6
$ double precision, parameter :: f88 = 2.2257d-1
$ double precision, parameter :: f89 = 6.4137d-1
$ double precision, parameter :: f90 = 5.7461d-6
$ double precision, parameter :: f91 = 3.7422d-5
$ double precision, parameter :: f92 = 5.2523d-6
$ double precision, parameter :: f93 = 4.2276d+1
$ double precision, parameter :: f94 = 8.4127d+1
$ double precision, parameter :: f95 = 2.8514d-2
$ double precision, parameter :: f96 = 4.4435d-6
$ double precision, parameter :: f97 = 8.4492d-1
$ double precision, parameter :: f98 = 6.6170d-6
$ double precision, parameter :: f99 = 3.8893d-5
$ double precision, parameter :: f100 = 5.0259d+1
$ double precision, parameter :: f101 = 7.9283d+1
$ double precision, parameter :: f102 = 5.5034d-2
$ double precision, parameter :: f103 = 7.0714d-8
$ double precision, parameter :: f104 = 1.7652d0
$ double precision, parameter :: f105 = 3.2867d-7
$ double precision, parameter :: f106 = 4.4786d+2
$ double precision, parameter :: f107 = 1.1184d-8
$ double precision, parameter :: f108 = 1.2547d-2
$ double precision, parameter :: f109 = 1.9248d0
$ double precision, parameter :: f110 = 1.8951d-5
$ double precision, parameter :: f111 = 2.3840d-6
$ double precision, parameter :: f112 = 8.3686d-4
$ double precision, parameter :: f113 = 5.3096d-1
$ double precision, parameter :: f114 = 9.0421d-1
$ double precision, parameter :: f115 = 1.0371d-8
$ double precision, parameter :: f116 = 1.5504d-8
$ double precision, parameter :: f117 = 3.4044d-2
$ double precision, parameter :: f118 = 1.0662d+2
$ double precision, parameter :: f119 = 6.3186d-1
$ double precision, parameter :: f120 = 1.3220d-5
$ double precision, parameter :: f121 = 5.7071d-3
$ double precision, parameter :: f122 = 8.1922d-8
$ double precision, parameter :: f123 = 1.1314d-8
$ double precision, parameter :: f124 = 1.6679d-1
$ double precision, parameter :: f125 = 9.2581d-6
$ double precision, parameter :: f126 = 4.5670d0
$ double precision, parameter :: f127 = 6.6163d+1
$ double precision, parameter :: f128 = 5.8994d-6
$ double precision, parameter :: f129 = 4.6283d-1
$ double precision, parameter :: f130 = 1.0201d-1
$ double precision, parameter :: f131 = 8.1242d-3
$ double precision, parameter :: f132 = 3.8417d-8
$ double precision, parameter :: f133 = 7.7979d-4
$ double precision, parameter :: f134 = 1.1596d-4
$ double precision, parameter :: f135 = 1.7229d+1
$ double precision, parameter :: f136 = 7.3284d-4
$ double precision, parameter :: f137 = 4.7159d-4
$ double precision, parameter :: f138 = 5.1092d+2
$ double precision, parameter :: f139 = 2.2257d-2
$ double precision, parameter :: f140 = 2.9236d-7
$ double precision, parameter :: f141 = 2.7702d-5
$ double precision, parameter :: f142 = 4.6321d+2
$ double precision, parameter :: f143 = 5.3123d-8
$ double precision, parameter :: f144 = 1.0402d-8
$ double precision, parameter :: f145 = 1.2140d-3
$ double precision, parameter :: f146 = 3.2671d-2
$ double precision, parameter :: f147 = 1.3673d0
$ double precision, parameter :: f148 = 1.9427d+2
$ double precision, parameter :: f149 = 6.5737d-2
$ double precision, parameter :: f150 = 3.6202d-1
$ double precision, parameter :: f151 = 6.2493d-7
$ double precision, parameter :: f152 = 6.0584d-5
$ double precision, parameter :: f153 = 8.9814d-6
$ double precision, parameter :: f154 = 1.7834d-4
$ double precision, parameter :: f155 = 6.9610d-7
$ double precision, parameter :: f156 = 4.1569d0
$ double precision, parameter :: f157 = 1.2490d+1
$ double precision, parameter :: f158 = 7.9648d-7
$ double precision, parameter :: f159 = 2.5442d-7
$ double precision, parameter :: f160 = 8.7774d-3
$ double precision, parameter :: f161 = 1.6280d-6
$ double precision, parameter :: f162 = 8.6530d-2
$ double precision, parameter :: f163 = 5.1898d+1
$ double precision, parameter :: f164 = 4.1727d-3
$ double precision, parameter :: f165 = 2.0131d-7
$ double precision, parameter :: f166 = 1.4795d-5
$ double precision, parameter :: f167 = 3.1700d-6
$ double precision, parameter :: f168 = 3.5511d0
$ double precision, parameter :: f169 = 6.1478d-5
$ double precision, parameter :: f170 = 5.7517d-5
$ double precision, parameter :: f171 = 2.4773d-4
$ double precision, parameter :: f172 = 1.0130d-8
$ double precision, parameter :: f173 = 1.4200d+2
$ double precision, parameter :: f174 = 2.3235d-5
$ double precision, parameter :: f175 = 3.3681d-7
$ double precision, parameter :: f176 = 1.9314d0
$ double precision, parameter :: f177 = 1.1402d-1
$ double precision, parameter :: f178 = 4.8143d-5
$ double precision, parameter :: f179 = 9.7613d-3
$ double precision, parameter :: f180 = 9.9777d+2
$ double precision, parameter :: f181 = 1.7611d-7
$ double precision, parameter :: f182 = 1.0949d-4
$ double precision, parameter :: f183 = 2.5601d-1
$ double precision, parameter :: f184 = 7.1607d-4
$ double precision, parameter :: f185 = 1.3617d+1
$ double precision, parameter :: f186 = 2.3003d-1
$ double precision, parameter :: f187 = 2.2702d-7
$ double precision, parameter :: f188 = 3.3133d+1
$ double precision, parameter :: f189 = 1.7668d-6
$ double precision, parameter :: f190 = 1.6220d-2
$ double precision, parameter :: f191 = 1.6433d+2
$ double precision, parameter :: f192 = 6.3312d-1
$ double precision, parameter :: f193 = 6.1953d-7
$ double precision, parameter :: f194 = 9.0505d+2
$ double precision, parameter :: f195 = 1.2793d-7
$ double precision, parameter :: f196 = 5.3387d0
$ double precision, parameter :: f197 = 1.8615d-8
$ double precision, parameter :: f198 = 1.1549d0
$ double precision, parameter :: f199 = 1.1093d-4
$ double precision, parameter :: f200 = 1.9725d-6
$ double precision, parameter :: f201 = 7.1323d-3
$ double precision, parameter :: f202 = 5.2578d-7
$ double precision, parameter :: f203 = 1.9969d-7
$ double precision, parameter :: f204 = 1.0344d0
$ double precision, parameter :: f205 = 1.9790d-8
$ double precision, parameter :: f206 = 2.1586d0
$ double precision, parameter :: f207 = 1.6714d-1
$ double precision, parameter :: f208 = 3.5342d-8
$ double precision, parameter :: f209 = 2.8198d0
$ double precision, parameter :: f210 = 3.1378d0
$ double precision, parameter :: f211 = 2.7713d-2
$ double precision, parameter :: f212 = 1.0221d-7
$ double precision, parameter :: f213 = 3.3032d-6
$ double precision, parameter :: f214 = 3.0083d-1
$ double precision, parameter :: f215 = 7.7048d0
$ double precision, parameter :: f216 = 1.3323d-7
$ double precision, parameter :: f217 = 6.1083d+1
$ double precision, parameter :: f218 = 5.8613d-5
$ double precision, parameter :: f219 = 9.4607d-4
$ double precision, parameter :: f220 = 8.8103d+2
$ double precision, parameter :: f221 = 1.4293d0
$ double precision, parameter :: f222 = 4.4822d-2
$ double precision, parameter :: f223 = 3.3213d-7
$ double precision, parameter :: f224 = 7.0182d-1
$ double precision, parameter :: f225 = 1.5121d-7
$ double precision, parameter :: f226 = 7.9431d+1
$ double precision, parameter :: f227 = 1.1766d-1
$ double precision, parameter :: f228 = 2.5821d-8
$ double precision, parameter :: f229 = 3.7362d-1
$ double precision, parameter :: f230 = 6.7212d-6
$ double precision, parameter :: f231 = 8.2645d-8
$ double precision, parameter :: f232 = 1.3677d+1
$ double precision, parameter :: f233 = 2.1381d-4
$ double precision, parameter :: f234 = 2.5933d0
$ double precision, parameter :: f235 = 3.5609d-1
$ double precision, parameter :: f236 = 1.0608d-1
$ double precision, parameter :: f237 = 1.0748d-2
$ double precision, parameter :: f238 = 5.3457d-6
$ double precision, parameter :: f239 = 8.6546d-5
$ double precision, parameter :: f240 = 7.3556d-5
$ double precision, parameter :: f241 = 2.3399d-7
$ double precision, parameter :: f242 = 3.2711d-2
$ double precision, parameter :: f243 = 6.6932d-8
$ double precision, parameter :: f244 = 8.6473d+1
$ double precision, parameter :: f245 = 7.6656d0
$ double precision, parameter :: f246 = 3.8721d-8
$ double precision, parameter :: f247 = 5.2845d-7
$ double precision, parameter :: f248 = 7.2535d-2
$ double precision, parameter :: f249 = 3.0553d+1
$ double precision, parameter :: f250 = 3.8794d0
$ double precision, parameter :: f251 = 8.1476d-6
$ double precision, parameter :: f252 = 1.4875d-5
$ double precision, parameter :: f253 = 1.9886d0
$ double precision, parameter :: f254 = 1.8738d-5
$ double precision, parameter :: f255 = 4.6176d-3
$ double precision, parameter :: f256 = 7.8088d+2
$ double precision, parameter :: f257 = 5.3938d-1
$ double precision, parameter :: f258 = 1.5708d-4
$ double precision, parameter :: f259 = 1.5638d-2
$ double precision, parameter :: f260 = 8.3163d-2
$ double precision, parameter :: f261 = 9.8931d-2
$ double precision, parameter :: f262 = 1.2977d-6
$ double precision, parameter :: f263 = 1.7209d-4
$ double precision, parameter :: f264 = 6.0108d+2
$ double precision, parameter :: f265 = 3.1993d-5
$ double precision, parameter :: f266 = 7.6797d-5
$ double precision, parameter :: f267 = 6.5162d-4
$ double precision, parameter :: f268 = 3.7267d-8
$ double precision, parameter :: f269 = 8.9327d-4
$ double precision, parameter :: f270 = 1.5907d+2
$ double precision, parameter :: f271 = 1.3194d-6
$ double precision, parameter :: f272 = 1.3875d-8
$ double precision, parameter :: f273 = 7.5968d-7
$ double precision, parameter :: f274 = 7.1255d-3
$ double precision, parameter :: f275 = 2.8209d-5
$ double precision, parameter :: f276 = 1.8374d-2
$ double precision, parameter :: f277 = 1.2512d0
$ double precision, parameter :: f278 = 2.4425d-1
$ double precision, parameter :: f279 = 3.6199d-7
$ double precision, parameter :: f280 = 8.0705d-6
$ double precision, parameter :: f281 = 4.1577d+1
$ double precision, parameter :: f282 = 2.4302d0
$ double precision, parameter :: f283 = 9.6684d+2
$ double precision, parameter :: f284 = 4.7319d-3
$ double precision, parameter :: f285 = 3.1169d+2
$ double precision, parameter :: f286 = 7.4472d-8
$ double precision, parameter :: f287 = 9.5421d-4
$ double precision, parameter :: f288 = 6.9652d-4
$ double precision, parameter :: f289 = 7.2423d+1
$ double precision, parameter :: f290 = 9.0768d-3
$ double precision, parameter :: f291 = 2.1786d+2
$ double precision, parameter :: f292 = 6.3439d-6
$ double precision, parameter :: f293 = 9.0863d-6
$ double precision, parameter :: f294 = 8.3895d-1
$ double precision, parameter :: f295 = 5.4742d+1
$ double precision, parameter :: f296 = 7.3006d+2
$ double precision, parameter :: f297 = 5.2470d-2
$ double precision, parameter :: f298 = 7.3472d-1
$ double precision, parameter :: f299 = 1.7970d+2
$ double precision, parameter :: f300 = 7.0023d-5
$ double precision, parameter :: f301 = 1.2070d0
$ double precision, parameter :: f302 = 1.4451d-7
$ double precision, parameter :: f303 = 6.8592d-6
$ double precision, parameter :: f304 = 7.8207d0
$ double precision, parameter :: f305 = 4.5456d-2
$ double precision, parameter :: f306 = 1.2849d-7
$ double precision, parameter :: f307 = 2.7463d-3
$ double precision, parameter :: f308 = 6.9427d-5
$ double precision, parameter :: f309 = 8.2521d-7
$ double precision, parameter :: f310 = 1.2579d-4
$ double precision, parameter :: f311 = 2.2529d-5
$ double precision, parameter :: f312 = 5.1514d-5
$ double precision, parameter :: f313 = 1.6652d-2
$ double precision, parameter :: f314 = 1.7320d-8
$ double precision, parameter :: f315 = 4.8222d0

# Electron Collision Reaction
e + CH4 => e + CH4(v24)		! f0 * Bolsig+ CH4 -> CH4(v24)
e + CH4 => e + CH4(v13)		! f1 * Bolsig+ CH4 -> CH4(v13)
e + C2H6 => e + C2H6(v24)		! f2 * Bolsig+ C2H6 -> C2H6(v24)
e + C2H6 => e + C2H6(v13)		! f3 * Bolsig+ C2H6 -> C2H6(v13)
e + C2H4 => e + C2H4(v1)		! f4 * Bolsig+ C2H4 -> C2H4(v1)
e + C2H4 => e + C2H4(v2)		! f5 * Bolsig+ C2H4 -> C2H4(v2)
e + C2H2 => e + C2H2(v5)		! f6 * Bolsig+ C2H2 -> C2H2(v5)
e + C2H2 => e + C2H2(v2)		! f7 * Bolsig+ C2H2 -> C2H2(v2)
e + C2H2 => e + C2H2(v13)		! f8 * Bolsig+ C2H2 -> C2H2(v13)
e + C3H8 => e + C3H8(v1)		! f9 * Bolsig+ C3H8 -> C3H8(v1)
e + C3H8 => e + C3H8(v2)		! f10 * Bolsig+ C3H8 -> C3H8(v2)
e + C3H6 => e + C3H6(v)		! f11 * Bolsig+ C3H6 -> C3H6(v)
e + CH4 => e + CH3 + H		! f12 * Bolsig+ CH4 -> CH3 H
e + CH4(v24) => e + CH3 + H		! f12 * Bolsig+ CH4(v24) -> CH3 H
e + CH4(v13) => e + CH3 + H		! f12 * Bolsig+ CH4(v13) -> CH3 H
e + CH4 => e + CH2 + H2		! f13 * Bolsig+ CH4 -> CH2 H2
e + CH4(v24) => e + CH2 + H2		! f13 * Bolsig+ CH4(v24) -> CH2 H2
e + CH4(v13) => e + CH2 + H2		! f13 * Bolsig+ CH4(v13) -> CH2 H2
e + CH4 => e + CH + H2 + H		! f14 * Bolsig+ CH4 -> CH H2 H
e + CH4(v24) => e + CH + H2 + H		! f14 * Bolsig+ CH4(v24) -> CH H2 H
e + CH4(v13) => e + CH + H2 + H		! f14 * Bolsig+ CH4(v13) -> CH H2 H
e + CH4 => e + C + H2 + H2		! f15 * Bolsig+ CH4 -> C H2 H2
e + CH4(v24) => e + C + H2 + H2		! f15 * Bolsig+ CH4(v24) -> C H2 H2
e + CH4(v13) => e + C + H2 + H2		! f15 * Bolsig+ CH4(v13) -> C H2 H2
e + CH3 => e + CH2 + H		! f16 * Bolsig+ CH3 -> CH2 H
e + CH3 => e + CH + H2		! f17 * Bolsig+ CH3 -> CH H2
e + CH3 => e + C + H2 + H		! f18 * Bolsig+ CH3 -> C H2 H
e + CH2 => e + CH + H		! f19 * Bolsig+ CH2 -> CH H
e + CH2 => e + C + H2		! f20 * Bolsig+ CH2 -> C H2
e + CH2 => e + C + H + H		! f21 * Bolsig+ CH2 -> C H H
e + CH => e + C + H		! f22 * Bolsig+ CH -> C H
e + CH4 => e + e + CH4^+		! f23 * Bolsig+ CH4 -> CH4^+
e + CH4(v24) => e + e + CH4^+		! f23 * Bolsig+ CH4(v24) -> CH4^+
e + CH4(v13) => e + e + CH4^+		! f23 * Bolsig+ CH4(v13) -> CH4^+
e + CH4 => e + e + H + CH3^+		! f24 * Bolsig+ CH4 -> H CH3^+
e + CH4(v24) => e + e + H + CH3^+		! f24 * Bolsig+ CH4(v24) -> H CH3^+
e + CH4(v13) => e + e + H + CH3^+		! f24 * Bolsig+ CH4(v13) -> H CH3^+
e + CH4 => e + e + H2 + CH2^+		! f25 * Bolsig+ CH4 -> H2 CH2^+
e + CH4(v24) => e + e + H2 + CH2^+		! f25 * Bolsig+ CH4(v24) -> H2 CH2^+
e + CH4(v13) => e + e + H2 + CH2^+		! f25 * Bolsig+ CH4(v13) -> H2 CH2^+
e + CH4 => e + e + H2 + H + CH^+		! f26 * Bolsig+ CH4 -> H2 H CH^+
e + CH4(v24) => e + e + H2 + H + CH^+		! f26 * Bolsig+ CH4(v24) -> H2 H CH^+
e + CH4(v13) => e + e + H2 + H + CH^+		! f26 * Bolsig+ CH4(v13) -> H2 H CH^+
e + CH3 => e + e + CH3^+		! f27 * Bolsig+ CH3 -> CH3^+
e + CH3 => e + e + H + CH2^+		! f28 * Bolsig+ CH3 -> H CH2^+
e + CH3 => e + e + H2 + CH^+		! f29 * Bolsig+ CH3 -> H2 CH^+
e + CH2 => e + e + CH2^+		! f30 * Bolsig+ CH2 -> CH2^+
e + CH2 => e + e + H + CH^+		! f31 * Bolsig+ CH2 -> H CH^+
e + CH => e + e + CH^+		! f32 * Bolsig+ CH -> CH^+
e + C2H6 => e + C2H5 + H		! f33 * Bolsig+ C2H6 -> C2H5 H
e + C2H6(v24) => e + C2H5 + H		! f33 * Bolsig+ C2H6(v24) -> C2H5 H
e + C2H6(v13) => e + C2H5 + H		! f33 * Bolsig+ C2H6(v13) -> C2H5 H
e + C2H6 => e + C2H4 + H2		! f34 * Bolsig+ C2H6 -> C2H4 H2
e + C2H6(v24) => e + C2H4 + H2		! f34 * Bolsig+ C2H6(v24) -> C2H4 H2
e + C2H6(v13) => e + C2H4 + H2		! f34 * Bolsig+ C2H6(v13) -> C2H4 H2
e + C2H6 => e + C2H3 + H2 + H		! f35 * Bolsig+ C2H6 -> C2H3 H2 H
e + C2H6(v24) => e + C2H3 + H2 + H		! f35 * Bolsig+ C2H6(v24) -> C2H3 H2 H
e + C2H6(v13) => e + C2H3 + H2 + H		! f35 * Bolsig+ C2H6(v13) -> C2H3 H2 H
e + C2H6 => e + C2H2 + H2 + H2		! f36 * Bolsig+ C2H6 -> C2H2 H2 H2
e + C2H6(v24) => e + C2H2 + H2 + H2		! f36 * Bolsig+ C2H6(v24) -> C2H2 H2 H2
e + C2H6(v13) => e + C2H2 + H2 + H2		! f36 * Bolsig+ C2H6(v13) -> C2H2 H2 H2
e + C2H6 => e + CH4 + CH2		! f37 * Bolsig+ C2H6 -> CH4 CH2
e + C2H6(v24) => e + CH4 + CH2		! f37 * Bolsig+ C2H6(v24) -> CH4 CH2
e + C2H6(v13) => e + CH4 + CH2		! f37 * Bolsig+ C2H6(v13) -> CH4 CH2
e + C2H6 => e + CH3 + CH3		! f38 * Bolsig+ C2H6 -> CH3 CH3
e + C2H6(v24) => e + CH3 + CH3		! f38 * Bolsig+ C2H6(v24) -> CH3 CH3
e + C2H6(v13) => e + CH3 + CH3		! f38 * Bolsig+ C2H6(v13) -> CH3 CH3
e + C2H5 => e + C2H4 + H		! f39 * Bolsig+ C2H5 -> C2H4 H
e + C2H5 => e + C2H3 + H2		! f40 * Bolsig+ C2H5 -> C2H3 H2
e + C2H5 => e + C2H3 + H + H		! f41 * Bolsig+ C2H5 -> C2H3 H H
e + C2H5 => e + C2H2 + H2 + H		! f42 * Bolsig+ C2H5 -> C2H2 H2 H
e + C2H5 => e + CH4 + CH		! f43 * Bolsig+ C2H5 -> CH4 CH
e + C2H5 => e + CH3 + CH2		! f44 * Bolsig+ C2H5 -> CH3 CH2
e + C2H4 => e + C2H3 + H		! f45 * Bolsig+ C2H4 -> C2H3 H
e + C2H4(v1) => e + C2H3 + H		! f45 * Bolsig+ C2H4(v1) -> C2H3 H
e + C2H4(v2) => e + C2H3 + H		! f45 * Bolsig+ C2H4(v2) -> C2H3 H
e + C2H4 => e + C2H2 + H2		! f46 * Bolsig+ C2H4 -> C2H2 H2
e + C2H4(v1) => e + C2H2 + H2		! f46 * Bolsig+ C2H4(v1) -> C2H2 H2
e + C2H4(v2) => e + C2H2 + H2		! f46 * Bolsig+ C2H4(v2) -> C2H2 H2
e + C2H4 => e + C2H2 + H + H		! f47 * Bolsig+ C2H4 -> C2H2 H H
e + C2H4(v1) => e + C2H2 + H + H		! f47 * Bolsig+ C2H4(v1) -> C2H2 H H
e + C2H4(v2) => e + C2H2 + H + H		! f47 * Bolsig+ C2H4(v2) -> C2H2 H H
e + C2H4 => e + CH3 + CH		! f48 * Bolsig+ C2H4 -> CH3 CH
e + C2H4(v1) => e + CH3 + CH		! f48 * Bolsig+ C2H4(v1) -> CH3 CH
e + C2H4(v2) => e + CH3 + CH		! f48 * Bolsig+ C2H4(v2) -> CH3 CH
e + C2H4 => e + CH2 + CH2		! f49 * Bolsig+ C2H4 -> CH2 CH2
e + C2H4(v1) => e + CH2 + CH2		! f49 * Bolsig+ C2H4(v1) -> CH2 CH2
e + C2H4(v2) => e + CH2 + CH2		! f49 * Bolsig+ C2H4(v2) -> CH2 CH2
e + C2H3 => e + C2H2 + H		! f50 * Bolsig+ C2H3 -> C2H2 H
e + C2H3 => e + CH2 + CH		! f51 * Bolsig+ C2H3 -> CH2 CH
e + C2H2 => e + CH + CH		! f52 * Bolsig+ C2H2 -> CH CH
e + C2H2(v5) => e + CH + CH		! f52 * Bolsig+ C2H2(v5) -> CH CH
e + C2H2(v2) => e + CH + CH		! f52 * Bolsig+ C2H2(v2) -> CH CH
e + C2H2(v13) => e + CH + CH		! f52 * Bolsig+ C2H2(v13) -> CH CH
e + C2H6 => e + e + C2H6^+		! f53 * Bolsig+ C2H6 -> C2H6^+
e + C2H6(v24) => e + e + C2H6^+		! f53 * Bolsig+ C2H6(v24) -> C2H6^+
e + C2H6(v13) => e + e + C2H6^+		! f53 * Bolsig+ C2H6(v13) -> C2H6^+
e + C2H6 => e + e + H + C2H5^+		! f54 * Bolsig+ C2H6 -> H C2H5^+
e + C2H6(v24) => e + e + H + C2H5^+		! f54 * Bolsig+ C2H6(v24) -> H C2H5^+
e + C2H6(v13) => e + e + H + C2H5^+		! f54 * Bolsig+ C2H6(v13) -> H C2H5^+
e + C2H6 => e + e + H2 + C2H4^+		! f55 * Bolsig+ C2H6 -> H2 C2H4^+
e + C2H6(v24) => e + e + H2 + C2H4^+		! f55 * Bolsig+ C2H6(v24) -> H2 C2H4^+
e + C2H6(v13) => e + e + H2 + C2H4^+		! f55 * Bolsig+ C2H6(v13) -> H2 C2H4^+
e + C2H6 => e + e + H2 + H + C2H3^+		! f56 * Bolsig+ C2H6 -> H2 H C2H3^+
e + C2H6(v24) => e + e + H2 + H + C2H3^+		! f56 * Bolsig+ C2H6(v24) -> H2 H C2H3^+
e + C2H6(v13) => e + e + H2 + H + C2H3^+		! f56 * Bolsig+ C2H6(v13) -> H2 H C2H3^+
e + C2H6 => e + e + H2 + H2 + C2H2^+		! f57 * Bolsig+ C2H6 -> H2 H2 C2H2^+
e + C2H6(v24) => e + e + H2 + H2 + C2H2^+		! f57 * Bolsig+ C2H6(v24) -> H2 H2 C2H2^+
e + C2H6(v13) => e + e + H2 + H2 + C2H2^+		! f57 * Bolsig+ C2H6(v13) -> H2 H2 C2H2^+
e + C2H6 => e + e + CH3 + CH3^+		! f58 * Bolsig+ C2H6 -> CH3 CH3^+
e + C2H6(v24) => e + e + CH3 + CH3^+		! f58 * Bolsig+ C2H6(v24) -> CH3 CH3^+
e + C2H6(v13) => e + e + CH3 + CH3^+		! f58 * Bolsig+ C2H6(v13) -> CH3 CH3^+
e + C2H6 => e + e + CH4 + CH2^+		! f59 * Bolsig+ C2H6 -> CH4 CH2^+
e + C2H6(v24) => e + e + CH4 + CH2^+		! f59 * Bolsig+ C2H6(v24) -> CH4 CH2^+
e + C2H6(v13) => e + e + CH4 + CH2^+		! f59 * Bolsig+ C2H6(v13) -> CH4 CH2^+
e + C2H5 => e + e + C2H5^+		! f60 * Bolsig+ C2H5 -> C2H5^+
e + C2H5 => e + e + H + C2H4^+		! f61 * Bolsig+ C2H5 -> H C2H4^+
e + C2H5 => e + e + H2 + C2H3^+		! f62 * Bolsig+ C2H5 -> H2 C2H3^+
e + C2H5 => e + e + H2 + H + C2H2^+		! f63 * Bolsig+ C2H5 -> H2 H C2H2^+
e + C2H5 => e + e + CH2 + CH3^+		! f64 * Bolsig+ C2H5 -> CH2 CH3^+
e + C2H5 => e + e + CH3 + CH2^+		! f65 * Bolsig+ C2H5 -> CH3 CH2^+
e + C2H5 => e + e + CH4 + CH^+		! f66 * Bolsig+ C2H5 -> CH4 CH^+
e + C2H4 => e + e + C2H4^+		! f67 * Bolsig+ C2H4 -> C2H4^+
e + C2H4(v1) => e + e + C2H4^+		! f67 * Bolsig+ C2H4(v1) -> C2H4^+
e + C2H4(v2) => e + e + C2H4^+		! f67 * Bolsig+ C2H4(v2) -> C2H4^+
e + C2H4 => e + e + H + C2H3^+		! f68 * Bolsig+ C2H4 -> H C2H3^+
e + C2H4(v1) => e + e + H + C2H3^+		! f68 * Bolsig+ C2H4(v1) -> H C2H3^+
e + C2H4(v2) => e + e + H + C2H3^+		! f68 * Bolsig+ C2H4(v2) -> H C2H3^+
e + C2H4 => e + e + CH + CH3^+		! f69 * Bolsig+ C2H4 -> CH CH3^+
e + C2H4(v1) => e + e + CH + CH3^+		! f69 * Bolsig+ C2H4(v1) -> CH CH3^+
e + C2H4(v2) => e + e + CH + CH3^+		! f69 * Bolsig+ C2H4(v2) -> CH CH3^+
e + C2H4 => e + e + CH2 + CH2^+		! f70 * Bolsig+ C2H4 -> CH2 CH2^+
e + C2H4(v1) => e + e + CH2 + CH2^+		! f70 * Bolsig+ C2H4(v1) -> CH2 CH2^+
e + C2H4(v2) => e + e + CH2 + CH2^+		! f70 * Bolsig+ C2H4(v2) -> CH2 CH2^+
e + C2H4 => e + e + CH3 + CH^+		! f71 * Bolsig+ C2H4 -> CH3 CH^+
e + C2H4(v1) => e + e + CH3 + CH^+		! f71 * Bolsig+ C2H4(v1) -> CH3 CH^+
e + C2H4(v2) => e + e + CH3 + CH^+		! f71 * Bolsig+ C2H4(v2) -> CH3 CH^+
e + C2H3 => e + e + C2H3^+		! f72 * Bolsig+ C2H3 -> C2H3^+
e + C2H3 => e + e + H + C2H2^+		! f73 * Bolsig+ C2H3 -> H C2H2^+
e + C2H3 => e + e + CH + CH2^+		! f74 * Bolsig+ C2H3 -> CH CH2^+
e + C2H3 => e + e + CH2 + CH^+		! f75 * Bolsig+ C2H3 -> CH2 CH^+
e + C2H3 => e + e + C2H2 + H^+		! f76 * Bolsig+ C2H3 -> C2H2 H^+
e + C2H2 => e + e + C2H2^+		! f77 * Bolsig+ C2H2 -> C2H2^+
e + C2H2(v5) => e + e + C2H2^+		! f77 * Bolsig+ C2H2(v5) -> C2H2^+
e + C2H2(v2) => e + e + C2H2^+		! f77 * Bolsig+ C2H2(v2) -> C2H2^+
e + C2H2(v13) => e + e + C2H2^+		! f77 * Bolsig+ C2H2(v13) -> C2H2^+
e + C2H2 => e + e + CH + CH^+		! f78 * Bolsig+ C2H2 -> CH CH^+
e + C2H2(v5) => e + e + CH + CH^+		! f78 * Bolsig+ C2H2(v5) -> CH CH^+
e + C2H2(v2) => e + e + CH + CH^+		! f78 * Bolsig+ C2H2(v2) -> CH CH^+
e + C2H2(v13) => e + e + CH + CH^+		! f78 * Bolsig+ C2H2(v13) -> CH CH^+
e + C3H8 => e + C3H7 + H		! f79 * Bolsig+ C3H8 -> C3H7 H
e + C3H8(v1) => e + C3H7 + H		! f79 * Bolsig+ C3H8(v1) -> C3H7 H
e + C3H8(v2) => e + C3H7 + H		! f79 * Bolsig+ C3H8(v2) -> C3H7 H
e + C3H8 => e + C3H6 + H2		! f80 * Bolsig+ C3H8 -> C3H6 H2
e + C3H8(v1) => e + C3H6 + H2		! f80 * Bolsig+ C3H8(v1) -> C3H6 H2
e + C3H8(v2) => e + C3H6 + H2		! f80 * Bolsig+ C3H8(v2) -> C3H6 H2
e + C3H7 => e + C3H6 + H		! f81 * Bolsig+ C3H7 -> C3H6 H
e + C3H8 => e + e + C3H8^+		! f82 * Bolsig+ C3H8 -> C3H8^+
e + C3H8(v1) => e + e + C3H8^+		! f82 * Bolsig+ C3H8(v1) -> C3H8^+
e + C3H8(v2) => e + e + C3H8^+		! f82 * Bolsig+ C3H8(v2) -> C3H8^+
e + C3H8 => e + e + H + C3H7^+		! f83 * Bolsig+ C3H8 -> H C3H7^+
e + C3H8(v1) => e + e + H + C3H7^+		! f83 * Bolsig+ C3H8(v1) -> H C3H7^+
e + C3H8(v2) => e + e + H + C3H7^+		! f83 * Bolsig+ C3H8(v2) -> H C3H7^+
e + C3H8 => e + e + H2 + C3H6^+		! f84 * Bolsig+ C3H8 -> H2 C3H6^+
e + C3H8(v1) => e + e + H2 + C3H6^+		! f84 * Bolsig+ C3H8(v1) -> H2 C3H6^+
e + C3H8(v2) => e + e + H2 + C3H6^+		! f84 * Bolsig+ C3H8(v2) -> H2 C3H6^+
e + C3H7 => e + e + C3H7^+		! f85 * Bolsig+ C3H7 -> C3H7^+
e + C3H7 => e + e + H + C3H6^+		! f86 * Bolsig+ C3H7 -> H C3H6^+
e + C3H6 => e + e + C3H6^+		! f87 * Bolsig+ C3H6 -> C3H6^+
e + C3H6(v) => e + e + C3H6^+		! f87 * Bolsig+ C3H6(v) -> C3H6^+
e + C3H6 => e + C2H2 + CH4		! f88 * Bolsig+ C3H6 -> C2H2 CH4
e + C3H6(v) => e + C2H2 + CH4		! f88 * Bolsig+ C3H6(v) -> C2H2 CH4
e + C3H6 => e + e + C2H2 + CH4^+		! f89 * Bolsig+ C3H6 -> C2H2 CH4^+
e + C3H6(v) => e + e + C2H2 + CH4^+		! f89 * Bolsig+ C3H6(v) -> C2H2 CH4^+

# Ion Recombination Reaction
e + e + CH^+ => e + CH		! f90 * 1.00d0
e + e + CH2^+ => e + CH2		! f91 * 1.00d0
e + e + CH3^+ => e + CH3		! f92 * 1.00d0
e + e + CH4^+ => e + CH4		! f93 * 1.00d0
e + e + C2H2^+ => e + C2H2		! f94 * 1.00d0
e + e + C2H3^+ => e + C2H3		! f95 * 1.00d0
e + e + C2H4^+ => e + C2H4		! f96 * 1.00d0
e + e + C2H5^+ => e + C2H5		! f97 * 1.00d0
e + e + C2H6^+ => e + C2H6		! f98 * 1.00d0
e + e + C3H6^+ => e + C3H6		! f99 * 1.00d0
e + e + C3H7^+ => e + C3H7		! f100 * 1.00d0
e + e + C3H8^+ => e + C3H8		! f101 * 1.00d0

# Gas Phase Reaction
e + CH4^+ => CH3 + H		! f102 * 1.18d-08 * (300./Tgas)**0.5
e + CH4^+ => CH2 + H + H		! f103 * 2.42d-08 * (300./Tgas)**0.5
e + CH4^+ => CH + H2 + H		! f104 * 1.41d-08 * (300./Tgas)**0.5
e + CH3^+ => CH2 + H		! f105 * 2.25d-08 * (300./Tgas)**0.5
e + CH3^+ => CH + H2		! f106 * 7.88d-09 * (300./Tgas)**0.5
e + CH3^+ => CH + H + H		! f107 * 9.00d-09 * (300./Tgas)**0.5
e + CH3^+ => C + H2 + H		! f108 * 1.69d-08 * (300./Tgas)**0.5
e + CH2^+ => CH + H		! f109 * 1.00d-08 * (300./Tgas)**0.5
e + CH2^+ => C + H2		! f110 * 4.82d-09 * (300./Tgas)**0.5
e + CH2^+ => C + H + H		! f111 * 2.53d-08 * (300./Tgas)**0.5
e + CH^+ => C + H		! f112 * 3.23d-08 * (300./Tgas)**0.42
e + C2H6^+ => C2H5 + H		! f113 * 2.19d-08 * (300./Tgas)**0.71
e + C2H6^+ => C2H4 + H + H		! f114 * 3.36d-08 * (300./Tgas)**0.71
e + C2H5^+ => C2H4 + H		! f115 * 7.70d-09 * (300./Tgas)**0.71
e + C2H5^+ => C2H3 + H + H		! f116 * 1.92d-08 * (300./Tgas)**0.71
e + C2H5^+ => C2H2 + H2 + H		! f117 * 1.60d-08 * (300./Tgas)**0.71
e + C2H5^+ => C2H2 + H + H + H		! f118 * 8.98d-09 * (300./Tgas)**0.71
e + C2H5^+ => CH3 + CH2		! f119 * 9.62d-09 * (300./Tgas)**0.71
e + C2H4^+ => C2H3 + H		! f120 * 8.29d-09 * (300./Tgas)**0.71
e + C2H4^+ => C2H2 + H + H		! f121 * 3.43d-08 * (300./Tgas)**0.71
e + C2H3^+ => C2H2 + H		! f122 * 1.34d-08 * (300./Tgas)**0.71
e + C2H2^+ => CH + CH		! f123 * 4.87d-09 * (300./Tgas)**0.71
e + H2^+ => H + H		! f124 * 3.17d21/(6.022d23 * Te**4.5)
e + H3^+ => H + H2		! f125 * 3.17d21/(6.022d23 * Te**4.5)
H2 + H2^+ => H + H3^+		! f126 * 2.11d-09
C2H6 + CH4^+ => CH4 + H2 + C2H4^+		! f127 * 1.91d-9
C2H6(v24) + CH4^+ => CH4 + H2 + C2H4^+		! f127 * 1.91d-9
C2H6(v13) + CH4^+ => CH4 + H2 + C2H4^+		! f127 * 1.91d-9
C2H4 + CH4^+ => CH3 + C2H5^+		! f128 * 4.23d-10