ELEMENTS
e C H
END

SPECIES
e C CH CH^+ CH2 CH2^+ CH3 CH3^+ CH4 CH4(v13) CH4(v24) CH4^+ C2H2 C2H2(v13) C2H2(v2) C2H2(v5) C2H2^+ C2H3 C2H3^+ C2H4 C2H4(v1) C2H4(v2) C2H4^+ C2H5 C2H5^+
C2H6 C2H6(v13) C2H6(v24) C2H6^+ C3H5 C3H6 C3H6(v) C3H6^+ C3H7 C3H7^+ C3H8 C3H8(v1) C3H8(v2) C3H8^+ C4H9 C4H9H C2H C5H12 H H2 H2^+ H3^+ H^+
END

BOLSIG
CH CH2 CH3 CH4 CH4(v13) CH4(v24) C2H2 C2H2(v13) C2H2(v2) C2H2(v5) C2H3 C2H4 C2H4(v1) C2H4(v2) C2H5 C2H6 C2H6(v13) C2H6(v24) C3H6 C3H6(v) C3H7 C3H8 C3H8(v1) C3H8(v2)
END

REACTIONS
# Gas Constant
$ double precision, parameter :: R = 8.314d-3

# Compensation Parameters
$ double precision, parameter :: f0 = 4.1268d0
$ double precision, parameter :: f1 = 2.2415d+1
$ double precision, parameter :: f2 = 4.2023d-3
$ double precision, parameter :: f3 = 9.0109d-1
$ double precision, parameter :: f4 = 1.5179d-6
$ double precision, parameter :: f5 = 9.2715d-5
$ double precision, parameter :: f6 = 5.1069d-3
$ double precision, parameter :: f7 = 3.8489d-8
$ double precision, parameter :: f8 = 3.6912d-7
$ double precision, parameter :: f9 = 2.3368d-3
$ double precision, parameter :: f10 = 2.1211d-7
$ double precision, parameter :: f11 = 1.9342d-3
$ double precision, parameter :: f12 = 5.3440d0
$ double precision, parameter :: f13 = 1.3222d-5
$ double precision, parameter :: f14 = 3.1795d+1
$ double precision, parameter :: f15 = 3.3027d-5
$ double precision, parameter :: f16 = 8.5825d0
$ double precision, parameter :: f17 = 5.1985d+1
$ double precision, parameter :: f18 = 3.8040d-4
$ double precision, parameter :: f19 = 4.2240d-8
$ double precision, parameter :: f20 = 1.9806d-1
$ double precision, parameter :: f21 = 9.5318d+1
$ double precision, parameter :: f22 = 1.5996d-2
$ double precision, parameter :: f23 = 3.0350d-1
$ double precision, parameter :: f24 = 1.5970d+1
$ double precision, parameter :: f25 = 1.9619d+1
$ double precision, parameter :: f26 = 4.3114d-4
$ double precision, parameter :: f27 = 1.7069d+1
$ double precision, parameter :: f28 = 2.0658d-5
$ double precision, parameter :: f29 = 1.6558d-7
$ double precision, parameter :: f30 = 4.8618d-3
$ double precision, parameter :: f31 = 9.3566d-2
$ double precision, parameter :: f32 = 6.9916d-7
$ double precision, parameter :: f33 = 6.0617d-2
$ double precision, parameter :: f34 = 2.9851d-3
$ double precision, parameter :: f35 = 3.3073d-1
$ double precision, parameter :: f36 = 2.7241d+1
$ double precision, parameter :: f37 = 8.0329d-5
$ double precision, parameter :: f38 = 7.7534d-3
$ double precision, parameter :: f39 = 8.5138d+1
$ double precision, parameter :: f40 = 3.7048d-7
$ double precision, parameter :: f41 = 3.3995d-6
$ double precision, parameter :: f42 = 5.8000d+2
$ double precision, parameter :: f43 = 2.1041d-1
$ double precision, parameter :: f44 = 2.1378d-5
$ double precision, parameter :: f45 = 6.3091d-8
$ double precision, parameter :: f46 = 9.6793d-5
$ double precision, parameter :: f47 = 1.0301d+1
$ double precision, parameter :: f48 = 5.4531d-2
$ double precision, parameter :: f49 = 2.2098d-5
$ double precision, parameter :: f50 = 6.2042d0
$ double precision, parameter :: f51 = 8.7520d+1
$ double precision, parameter :: f52 = 2.4885d-6
$ double precision, parameter :: f53 = 8.2874d-5
$ double precision, parameter :: f54 = 3.6532d-7
$ double precision, parameter :: f55 = 1.3128d-5
$ double precision, parameter :: f56 = 3.1921d-4
$ double precision, parameter :: f57 = 2.1538d-3
$ double precision, parameter :: f58 = 9.9628d-8
$ double precision, parameter :: f59 = 1.2002d-5
$ double precision, parameter :: f60 = 2.0466d-7
$ double precision, parameter :: f61 = 1.8795d-6
$ double precision, parameter :: f62 = 5.9138d-2
$ double precision, parameter :: f63 = 3.5031d-3
$ double precision, parameter :: f64 = 4.9197d-7
$ double precision, parameter :: f65 = 4.5254d-6
$ double precision, parameter :: f66 = 1.6518d-3
$ double precision, parameter :: f67 = 1.5189d+1
$ double precision, parameter :: f68 = 8.9741d-4
$ double precision, parameter :: f69 = 5.4743d-8
$ double precision, parameter :: f70 = 3.2840d-3
$ double precision, parameter :: f71 = 2.6951d-4
$ double precision, parameter :: f72 = 1.0957d-6
$ double precision, parameter :: f73 = 1.0830d-4
$ double precision, parameter :: f74 = 3.2130d-3
$ double precision, parameter :: f75 = 3.5578d-1
$ double precision, parameter :: f76 = 6.8007d+2
$ double precision, parameter :: f77 = 1.2743d+2
$ double precision, parameter :: f78 = 2.0433d-7
$ double precision, parameter :: f79 = 7.6326d-7
$ double precision, parameter :: f80 = 5.7693d-5
$ double precision, parameter :: f81 = 3.3190d-5
$ double precision, parameter :: f82 = 9.8810d-8
$ double precision, parameter :: f83 = 1.2786d+1
$ double precision, parameter :: f84 = 8.5096d+1
$ double precision, parameter :: f85 = 4.3314d+2
$ double precision, parameter :: f86 = 3.3228d-2
$ double precision, parameter :: f87 = 4.4365d-2
$ double precision, parameter :: f88 = 6.7914d-3
$ double precision, parameter :: f89 = 9.5060d+2
$ double precision, parameter :: f90 = 2.2458d-2
$ double precision, parameter :: f91 = 1.7720d-2
$ double precision, parameter :: f92 = 1.5786d-5
$ double precision, parameter :: f93 = 8.2631d-5
$ double precision, parameter :: f94 = 8.4091d-7
$ double precision, parameter :: f95 = 9.2001d-7
$ double precision, parameter :: f96 = 2.2221d0
$ double precision, parameter :: f97 = 7.1410d-3
$ double precision, parameter :: f98 = 3.8408d+2
$ double precision, parameter :: f99 = 3.7590d+1
$ double precision, parameter :: f100 = 3.7627d0
$ double precision, parameter :: f101 = 1.8039d0
$ double precision, parameter :: f102 = 7.3277d-8
$ double precision, parameter :: f103 = 1.3215d-4
$ double precision, parameter :: f104 = 4.4901d-6
$ double precision, parameter :: f105 = 6.1523d-6
$ double precision, parameter :: f106 = 9.3172d0
$ double precision, parameter :: f107 = 1.1405d-4
$ double precision, parameter :: f108 = 8.0189d0
$ double precision, parameter :: f109 = 3.8234d-2
$ double precision, parameter :: f110 = 5.0264d-1
$ double precision, parameter :: f111 = 2.5562d-1
$ double precision, parameter :: f112 = 1.8620d-3
$ double precision, parameter :: f113 = 1.6286d-5
$ double precision, parameter :: f114 = 5.8792d+2
$ double precision, parameter :: f115 = 9.5076d-8
$ double precision, parameter :: f116 = 7.8504d-2
$ double precision, parameter :: f117 = 1.9813d+1
$ double precision, parameter :: f118 = 3.1992d-6
$ double precision, parameter :: f119 = 3.7553d-3
$ double precision, parameter :: f120 = 2.3600d-7
$ double precision, parameter :: f121 = 8.8310d-3
$ double precision, parameter :: f122 = 1.2701d-2
$ double precision, parameter :: f123 = 7.4578d-2
$ double precision, parameter :: f124 = 3.5304d-1
$ double precision, parameter :: f125 = 2.4508d-4
$ double precision, parameter :: f126 = 7.7273d-8
$ double precision, parameter :: f127 = 1.6707d0
$ double precision, parameter :: f128 = 1.8808d0
$ double precision, parameter :: f129 = 1.1796d+1
$ double precision, parameter :: f130 = 3.4199d-4
$ double precision, parameter :: f131 = 5.8056d-6
$ double precision, parameter :: f132 = 7.6109d-5
$ double precision, parameter :: f133 = 2.1576d-3
$ double precision, parameter :: f134 = 4.1035d-1
$ double precision, parameter :: f135 = 8.5680d-7
$ double precision, parameter :: f136 = 4.0957d-4
$ double precision, parameter :: f137 = 7.9576d-3
$ double precision, parameter :: f138 = 4.7457d-1
$ double precision, parameter :: f139 = 1.7155d-3
$ double precision, parameter :: f140 = 1.6928d-1
$ double precision, parameter :: f141 = 3.4020d0
$ double precision, parameter :: f142 = 1.1086d-8
$ double precision, parameter :: f143 = 1.4033d-4
$ double precision, parameter :: f144 = 2.1330d-2
$ double precision, parameter :: f145 = 2.0040d0
$ double precision, parameter :: f146 = 8.5721d-7
$ double precision, parameter :: f147 = 3.4947d-7
$ double precision, parameter :: f148 = 2.8369d-8
$ double precision, parameter :: f149 = 5.5971d-4
$ double precision, parameter :: f150 = 1.1837d-6
$ double precision, parameter :: f151 = 5.2323d+1
$ double precision, parameter :: f152 = 7.2170d-1
$ double precision, parameter :: f153 = 2.0200d-6
$ double precision, parameter :: f154 = 3.7777d+2
$ double precision, parameter :: f155 = 1.1593d0
$ double precision, parameter :: f156 = 1.7884d-6
$ double precision, parameter :: f157 = 3.0744d-2
$ double precision, parameter :: f158 = 1.9513d0
$ double precision, parameter :: f159 = 1.1866d-5
$ double precision, parameter :: f160 = 2.6397d-6
$ double precision, parameter :: f161 = 8.6563d-3
$ double precision, parameter :: f162 = 3.6131d-7
$ double precision, parameter :: f163 = 4.1660d+1
$ double precision, parameter :: f164 = 1.0281d-8
$ double precision, parameter :: f165 = 1.9253d-3
$ double precision, parameter :: f166 = 2.7058d-2
$ double precision, parameter :: f167 = 2.8813d-7
$ double precision, parameter :: f168 = 4.7785d+1
$ double precision, parameter :: f169 = 1.3290d0
$ double precision, parameter :: f170 = 7.5772d-7
$ double precision, parameter :: f171 = 4.7943d-4
$ double precision, parameter :: f172 = 8.1327d+1
$ double precision, parameter :: f173 = 1.6705d-2
$ double precision, parameter :: f174 = 1.0371d-5
$ double precision, parameter :: f175 = 3.6007d-2
$ double precision, parameter :: f176 = 4.0382d0
$ double precision, parameter :: f177 = 5.5719d-4
$ double precision, parameter :: f178 = 3.1342d-7
$ double precision, parameter :: f179 = 1.0467d-8
$ double precision, parameter :: f180 = 2.0966d-5
$ double precision, parameter :: f181 = 3.9587d+1
$ double precision, parameter :: f182 = 3.5880d-1
$ double precision, parameter :: f183 = 1.6684d-3
$ double precision, parameter :: f184 = 3.9509d-2
$ double precision, parameter :: f185 = 1.0764d-5
$ double precision, parameter :: f186 = 3.0022d-7
$ double precision, parameter :: f187 = 1.1199d+2
$ double precision, parameter :: f188 = 8.1052d-3
$ double precision, parameter :: f189 = 7.2192d-4
$ double precision, parameter :: f190 = 2.6474d-6
$ double precision, parameter :: f191 = 5.1300d-5
$ double precision, parameter :: f192 = 5.9946d-8
$ double precision, parameter :: f193 = 2.6697d-2
$ double precision, parameter :: f194 = 6.8649d-4
$ double precision, parameter :: f195 = 7.0835d-6
$ double precision, parameter :: f196 = 4.3635d-6
$ double precision, parameter :: f197 = 5.0205d-3
$ double precision, parameter :: f198 = 6.2848d-4
$ double precision, parameter :: f199 = 1.6296d-7
$ double precision, parameter :: f200 = 7.8739d-1
$ double precision, parameter :: f201 = 3.0483d-3
$ double precision, parameter :: f202 = 1.6567d-8
$ double precision, parameter :: f203 = 1.4756d+1
$ double precision, parameter :: f204 = 2.2206d-6
$ double precision, parameter :: f205 = 6.5531d+2
$ double precision, parameter :: f206 = 2.0377d-1
$ double precision, parameter :: f207 = 1.9649d+1
$ double precision, parameter :: f208 = 3.1964d-6
$ double precision, parameter :: f209 = 1.0698d-6
$ double precision, parameter :: f210 = 8.8966d-3
$ double precision, parameter :: f211 = 1.5174d-2
$ double precision, parameter :: f212 = 5.2206d-3
$ double precision, parameter :: f213 = 4.2878d0
$ double precision, parameter :: f214 = 5.6307d-4
$ double precision, parameter :: f215 = 4.7713d-4
$ double precision, parameter :: f216 = 1.7578d-2
$ double precision, parameter :: f217 = 3.1818d+2
$ double precision, parameter :: f218 = 1.3942d-1
$ double precision, parameter :: f219 = 3.7445d-8
$ double precision, parameter :: f220 = 3.3967d-8
$ double precision, parameter :: f221 = 7.6230d+1
$ double precision, parameter :: f222 = 5.1684d-7
$ double precision, parameter :: f223 = 9.2272d-7
$ double precision, parameter :: f224 = 9.6248d-1
$ double precision, parameter :: f225 = 1.1655d-2
$ double precision, parameter :: f226 = 9.8802d+1
$ double precision, parameter :: f227 = 3.1200d0
$ double precision, parameter :: f228 = 1.4705d-6
$ double precision, parameter :: f229 = 2.6763d-5
$ double precision, parameter :: f230 = 2.1848d-2
$ double precision, parameter :: f231 = 6.4988d-5
$ double precision, parameter :: f232 = 1.9457d-8
$ double precision, parameter :: f233 = 6.8101d-8
$ double precision, parameter :: f234 = 2.0705d+1
$ double precision, parameter :: f235 = 2.5749d-5
$ double precision, parameter :: f236 = 1.1627d-1
$ double precision, parameter :: f237 = 3.3715d-2
$ double precision, parameter :: f238 = 1.0316d-6
$ double precision, parameter :: f239 = 1.2828d0
$ double precision, parameter :: f240 = 2.9525d-4
$ double precision, parameter :: f241 = 1.8660d-7
$ double precision, parameter :: f242 = 1.0337d+2
$ double precision, parameter :: f243 = 7.4322d-2
$ double precision, parameter :: f244 = 1.1356d-6
$ double precision, parameter :: f245 = 2.0521d-2
$ double precision, parameter :: f246 = 4.2419d-3
$ double precision, parameter :: f247 = 3.3949d-5
$ double precision, parameter :: f248 = 3.2210d-4
$ double precision, parameter :: f249 = 7.3002d-1
$ double precision, parameter :: f250 = 1.7147d0
$ double precision, parameter :: f251 = 1.8825d-8
$ double precision, parameter :: f252 = 5.8739d-5
$ double precision, parameter :: f253 = 1.4605d-5
$ double precision, parameter :: f254 = 1.8316d-5
$ double precision, parameter :: f255 = 1.7105d-7
$ double precision, parameter :: f256 = 8.9246d-4
$ double precision, parameter :: f257 = 5.3926d+1
$ double precision, parameter :: f258 = 1.1095d+2
$ double precision, parameter :: f259 = 3.3487d+2
$ double precision, parameter :: f260 = 1.1683d-1
$ double precision, parameter :: f261 = 3.4492d+2
$ double precision, parameter :: f262 = 3.5473d-3
$ double precision, parameter :: f263 = 2.7721d-6
$ double precision, parameter :: f264 = 5.9017d+1
$ double precision, parameter :: f265 = 5.4925d+2
$ double precision, parameter :: f266 = 8.2996d-2
$ double precision, parameter :: f267 = 1.1298d-8
$ double precision, parameter :: f268 = 2.1568d-3
$ double precision, parameter :: f269 = 3.9841d-5
$ double precision, parameter :: f270 = 8.3599d-1
$ double precision, parameter :: f271 = 8.1032d+2
$ double precision, parameter :: f272 = 3.2013d+2
$ double precision, parameter :: f273 = 2.1757d0
$ double precision, parameter :: f274 = 4.3431d-4
$ double precision, parameter :: f275 = 1.5814d-2
$ double precision, parameter :: f276 = 1.7632d-4
$ double precision, parameter :: f277 = 9.8986d+2
$ double precision, parameter :: f278 = 9.4266d-3
$ double precision, parameter :: f279 = 3.7627d0
$ double precision, parameter :: f280 = 9.3319d+2
$ double precision, parameter :: f281 = 2.5359d-8
$ double precision, parameter :: f282 = 1.1083d-8
$ double precision, parameter :: f283 = 4.8884d+1
$ double precision, parameter :: f284 = 4.7043d0
$ double precision, parameter :: f285 = 1.4682d-6
$ double precision, parameter :: f286 = 1.2915d-7
$ double precision, parameter :: f287 = 1.7550d0
$ double precision, parameter :: f288 = 5.6388d-1
$ double precision, parameter :: f289 = 5.0055d-5
$ double precision, parameter :: f290 = 5.5025d-7
$ double precision, parameter :: f291 = 1.3494d-5
$ double precision, parameter :: f292 = 1.6212d-8
$ double precision, parameter :: f293 = 2.3085d+1
$ double precision, parameter :: f294 = 4.2851d-8
$ double precision, parameter :: f295 = 1.8625d-5
$ double precision, parameter :: f296 = 7.9338d-7
$ double precision, parameter :: f297 = 4.2640d+1
$ double precision, parameter :: f298 = 5.3438d-3
$ double precision, parameter :: f299 = 5.6039d0
$ double precision, parameter :: f300 = 2.1031d-7
$ double precision, parameter :: f301 = 1.2987d-5
$ double precision, parameter :: f302 = 2.1260d-1
$ double precision, parameter :: f303 = 5.1487d-1
$ double precision, parameter :: f304 = 9.2323d0
$ double precision, parameter :: f305 = 4.0105d0
$ double precision, parameter :: f306 = 5.1870d-6
$ double precision, parameter :: f307 = 8.5772d-2
$ double precision, parameter :: f308 = 2.4164d-7
$ double precision, parameter :: f309 = 5.4029d+1
$ double precision, parameter :: f310 = 1.5337d0
$ double precision, parameter :: f311 = 1.6040d+2
$ double precision, parameter :: f312 = 6.6841d-7
$ double precision, parameter :: f313 = 2.0933d-7
$ double precision, parameter :: f314 = 3.5810d0
$ double precision, parameter :: f315 = 1.2567d+1

# Electron Collision Reaction
e + CH4 => e + CH4(v24)		! f0 * Bolsig+ CH4 -> CH4(v24)
e + CH4 => e + CH4(v13)		! f1 * Bolsig+ CH4 -> CH4(v13)
e + C2H6 => e + C2H6(v24)		! f2 * Bolsig+ C2H6 -> C2H6(v24)
e + C2H6 => e + C2H6(v13)		! f3 * Bolsig+ C2H6 -> C2H6(v13)
e + C2H4 => e + C2H4(v1)		! f4 * Bolsig+ C2H4 -> C2H4(v1)
e + C2H4 => e + C2H4(v2)		! f5 * Bolsig+ C2H4 -> C2H4(v2)
e + C2H2 => e + C2H2(v5)		! f6 * Bolsig+ C2H2 -> C2H2(v5)
e + C2H2 => e + C2H2(v2)		! f7 * Bolsig+ C2H2 -> C2H2(v2)
e + C2H2 => e + C2H2(v13)		! f8 * Bolsig+ C2H2 -> C2H2(v13)
e + C3H8 => e + C3H8(v1)		! f9 * Bolsig+ C3H8 -> C3H8(v1)
e + C3H8 => e + C3H8(v2)		! f10 * Bolsig+ C3H8 -> C3H8(v2)
e + C3H6 => e + C3H6(v)		! f11 * Bolsig+ C3H6 -> C3H6(v)
e + CH4 => e + CH3 + H		! f12 * Bolsig+ CH4 -> CH3 H
e + CH4(v24) => e + CH3 + H		! f12 * Bolsig+ CH4(v24) -> CH3 H
e + CH4(v13) => e + CH3 + H		! f12 * Bolsig+ CH4(v13) -> CH3 H
e + CH4 => e + CH2 + H2		! f13 * Bolsig+ CH4 -> CH2 H2
e + CH4(v24) => e + CH2 + H2		! f13 * Bolsig+ CH4(v24) -> CH2 H2
e + CH4(v13) => e + CH2 + H2		! f13 * Bolsig+ CH4(v13) -> CH2 H2
e + CH4 => e + CH + H2 + H		! f14 * Bolsig+ CH4 -> CH H2 H
e + CH4(v24) => e + CH + H2 + H		! f14 * Bolsig+ CH4(v24) -> CH H2 H
e + CH4(v13) => e + CH + H2 + H		! f14 * Bolsig+ CH4(v13) -> CH H2 H
e + CH4 => e + C + H2 + H2		! f15 * Bolsig+ CH4 -> C H2 H2
e + CH4(v24) => e + C + H2 + H2		! f15 * Bolsig+ CH4(v24) -> C H2 H2
e + CH4(v13) => e + C + H2 + H2		! f15 * Bolsig+ CH4(v13) -> C H2 H2
e + CH3 => e + CH2 + H		! f16 * Bolsig+ CH3 -> CH2 H
e + CH3 => e + CH + H2		! f17 * Bolsig+ CH3 -> CH H2
e + CH3 => e + C + H2 + H		! f18 * Bolsig+ CH3 -> C H2 H
e + CH2 => e + CH + H		! f19 * Bolsig+ CH2 -> CH H
e + CH2 => e + C + H2		! f20 * Bolsig+ CH2 -> C H2
e + CH2 => e + C + H + H		! f21 * Bolsig+ CH2 -> C H H
e + CH => e + C + H		! f22 * Bolsig+ CH -> C H
e + CH4 => e + e + CH4^+		! f23 * Bolsig+ CH4 -> CH4^+
e + CH4(v24) => e + e + CH4^+		! f23 * Bolsig+ CH4(v24) -> CH4^+
e + CH4(v13) => e + e + CH4^+		! f23 * Bolsig+ CH4(v13) -> CH4^+
e + CH4 => e + e + H + CH3^+		! f24 * Bolsig+ CH4 -> H CH3^+
e + CH4(v24) => e + e + H + CH3^+		! f24 * Bolsig+ CH4(v24) -> H CH3^+
e + CH4(v13) => e + e + H + CH3^+		! f24 * Bolsig+ CH4(v13) -> H CH3^+
e + CH4 => e + e + H2 + CH2^+		! f25 * Bolsig+ CH4 -> H2 CH2^+
e + CH4(v24) => e + e + H2 + CH2^+		! f25 * Bolsig+ CH4(v24) -> H2 CH2^+
e + CH4(v13) => e + e + H2 + CH2^+		! f25 * Bolsig+ CH4(v13) -> H2 CH2^+
e + CH4 => e + e + H2 + H + CH^+		! f26 * Bolsig+ CH4 -> H2 H CH^+
e + CH4(v24) => e + e + H2 + H + CH^+		! f26 * Bolsig+ CH4(v24) -> H2 H CH^+
e + CH4(v13) => e + e + H2 + H + CH^+		! f26 * Bolsig+ CH4(v13) -> H2 H CH^+
e + CH3 => e + e + CH3^+		! f27 * Bolsig+ CH3 -> CH3^+
e + CH3 => e + e + H + CH2^+		! f28 * Bolsig+ CH3 -> H CH2^+
e + CH3 => e + e + H2 + CH^+		! f29 * Bolsig+ CH3 -> H2 CH^+
e + CH2 => e + e + CH2^+		! f30 * Bolsig+ CH2 -> CH2^+
e + CH2 => e + e + H + CH^+		! f31 * Bolsig+ CH2 -> H CH^+
e + CH => e + e + CH^+		! f32 * Bolsig+ CH -> CH^+
e + C2H6 => e + C2H5 + H		! f33 * Bolsig+ C2H6 -> C2H5 H
e + C2H6(v24) => e + C2H5 + H		! f33 * Bolsig+ C2H6(v24) -> C2H5 H
e + C2H6(v13) => e + C2H5 + H		! f33 * Bolsig+ C2H6(v13) -> C2H5 H
e + C2H6 => e + C2H4 + H2		! f34 * Bolsig+ C2H6 -> C2H4 H2
e + C2H6(v24) => e + C2H4 + H2		! f34 * Bolsig+ C2H6(v24) -> C2H4 H2
e + C2H6(v13) => e + C2H4 + H2		! f34 * Bolsig+ C2H6(v13) -> C2H4 H2
e + C2H6 => e + C2H3 + H2 + H		! f35 * Bolsig+ C2H6 -> C2H3 H2 H
e + C2H6(v24) => e + C2H3 + H2 + H		! f35 * Bolsig+ C2H6(v24) -> C2H3 H2 H
e + C2H6(v13) => e + C2H3 + H2 + H		! f35 * Bolsig+ C2H6(v13) -> C2H3 H2 H
e + C2H6 => e + C2H2 + H2 + H2		! f36 * Bolsig+ C2H6 -> C2H2 H2 H2
e + C2H6(v24) => e + C2H2 + H2 + H2		! f36 * Bolsig+ C2H6(v24) -> C2H2 H2 H2
e + C2H6(v13) => e + C2H2 + H2 + H2		! f36 * Bolsig+ C2H6(v13) -> C2H2 H2 H2
e + C2H6 => e + CH4 + CH2		! f37 * Bolsig+ C2H6 -> CH4 CH2
e + C2H6(v24) => e + CH4 + CH2		! f37 * Bolsig+ C2H6(v24) -> CH4 CH2
e + C2H6(v13) => e + CH4 + CH2		! f37 * Bolsig+ C2H6(v13) -> CH4 CH2
e + C2H6 => e + CH3 + CH3		! f38 * Bolsig+ C2H6 -> CH3 CH3
e + C2H6(v24) => e + CH3 + CH3		! f38 * Bolsig+ C2H6(v24) -> CH3 CH3
e + C2H6(v13) => e + CH3 + CH3		! f38 * Bolsig+ C2H6(v13) -> CH3 CH3
e + C2H5 => e + C2H4 + H		! f39 * Bolsig+ C2H5 -> C2H4 H
e + C2H5 => e + C2H3 + H2		! f40 * Bolsig+ C2H5 -> C2H3 H2
e + C2H5 => e + C2H3 + H + H		! f41 * Bolsig+ C2H5 -> C2H3 H H
e + C2H5 => e + C2H2 + H2 + H		! f42 * Bolsig+ C2H5 -> C2H2 H2 H
e + C2H5 => e + CH4 + CH		! f43 * Bolsig+ C2H5 -> CH4 CH
e + C2H5 => e + CH3 + CH2		! f44 * Bolsig+ C2H5 -> CH3 CH2
e + C2H4 => e + C2H3 + H		! f45 * Bolsig+ C2H4 -> C2H3 H
e + C2H4(v1) => e + C2H3 + H		! f45 * Bolsig+ C2H4(v1) -> C2H3 H
e + C2H4(v2) => e + C2H3 + H		! f45 * Bolsig+ C2H4(v2) -> C2H3 H
e + C2H4 => e + C2H2 + H2		! f46 * Bolsig+ C2H4 -> C2H2 H2
e + C2H4(v1) => e + C2H2 + H2		! f46 * Bolsig+ C2H4(v1) -> C2H2 H2
e + C2H4(v2) => e + C2H2 + H2		! f46 * Bolsig+ C2H4(v2) -> C2H2 H2
e + C2H4 => e + C2H2 + H + H		! f47 * Bolsig+ C2H4 -> C2H2 H H
e + C2H4(v1) => e + C2H2 + H + H		! f47 * Bolsig+ C2H4(v1) -> C2H2 H H
e + C2H4(v2) => e + C2H2 + H + H		! f47 * Bolsig+ C2H4(v2) -> C2H2 H H
e + C2H4 => e + CH3 + CH		! f48 * Bolsig+ C2H4 -> CH3 CH
e + C2H4(v1) => e + CH3 + CH		! f48 * Bolsig+ C2H4(v1) -> CH3 CH
e + C2H4(v2) => e + CH3 + CH		! f48 * Bolsig+ C2H4(v2) -> CH3 CH
e + C2H4 => e + CH2 + CH2		! f49 * Bolsig+ C2H4 -> CH2 CH2
e + C2H4(v1) => e + CH2 + CH2		! f49 * Bolsig+ C2H4(v1) -> CH2 CH2
e + C2H4(v2) => e + CH2 + CH2		! f49 * Bolsig+ C2H4(v2) -> CH2 CH2
e + C2H3 => e + C2H2 + H		! f50 * Bolsig+ C2H3 -> C2H2 H
e + C2H3 => e + CH2 + CH		! f51 * Bolsig+ C2H3 -> CH2 CH
e + C2H2 => e + CH + CH		! f52 * Bolsig+ C2H2 -> CH CH
e + C2H2(v5) => e + CH + CH		! f52 * Bolsig+ C2H2(v5) -> CH CH
e + C2H2(v2) => e + CH + CH		! f52 * Bolsig+ C2H2(v2) -> CH CH
e + C2H2(v13) => e + CH + CH		! f52 * Bolsig+ C2H2(v13) -> CH CH
e + C2H6 => e + e + C2H6^+		! f53 * Bolsig+ C2H6 -> C2H6^+
e + C2H6(v24) => e + e + C2H6^+		! f53 * Bolsig+ C2H6(v24) -> C2H6^+
e + C2H6(v13) => e + e + C2H6^+		! f53 * Bolsig+ C2H6(v13) -> C2H6^+
e + C2H6 => e + e + H + C2H5^+		! f54 * Bolsig+ C2H6 -> H C2H5^+
e + C2H6(v24) => e + e + H + C2H5^+		! f54 * Bolsig+ C2H6(v24) -> H C2H5^+
e + C2H6(v13) => e + e + H + C2H5^+		! f54 * Bolsig+ C2H6(v13) -> H C2H5^+
e + C2H6 => e + e + H2 + C2H4^+		! f55 * Bolsig+ C2H6 -> H2 C2H4^+
e + C2H6(v24) => e + e + H2 + C2H4^+		! f55 * Bolsig+ C2H6(v24) -> H2 C2H4^+
e + C2H6(v13) => e + e + H2 + C2H4^+		! f55 * Bolsig+ C2H6(v13) -> H2 C2H4^+
e + C2H6 => e + e + H2 + H + C2H3^+		! f56 * Bolsig+ C2H6 -> H2 H C2H3^+
e + C2H6(v24) => e + e + H2 + H + C2H3^+		! f56 * Bolsig+ C2H6(v24) -> H2 H C2H3^+
e + C2H6(v13) => e + e + H2 + H + C2H3^+		! f56 * Bolsig+ C2H6(v13) -> H2 H C2H3^+
e + C2H6 => e + e + H2 + H2 + C2H2^+		! f57 * Bolsig+ C2H6 -> H2 H2 C2H2^+
e + C2H6(v24) => e + e + H2 + H2 + C2H2^+		! f57 * Bolsig+ C2H6(v24) -> H2 H2 C2H2^+
e + C2H6(v13) => e + e + H2 + H2 + C2H2^+		! f57 * Bolsig+ C2H6(v13) -> H2 H2 C2H2^+
e + C2H6 => e + e + CH3 + CH3^+		! f58 * Bolsig+ C2H6 -> CH3 CH3^+
e + C2H6(v24) => e + e + CH3 + CH3^+		! f58 * Bolsig+ C2H6(v24) -> CH3 CH3^+
e + C2H6(v13) => e + e + CH3 + CH3^+		! f58 * Bolsig+ C2H6(v13) -> CH3 CH3^+
e + C2H6 => e + e + CH4 + CH2^+		! f59 * Bolsig+ C2H6 -> CH4 CH2^+
e + C2H6(v24) => e + e + CH4 + CH2^+		! f59 * Bolsig+ C2H6(v24) -> CH4 CH2^+
e + C2H6(v13) => e + e + CH4 + CH2^+		! f59 * Bolsig+ C2H6(v13) -> CH4 CH2^+
e + C2H5 => e + e + C2H5^+		! f60 * Bolsig+ C2H5 -> C2H5^+
e + C2H5 => e + e + H + C2H4^+		! f61 * Bolsig+ C2H5 -> H C2H4^+
e + C2H5 => e + e + H2 + C2H3^+		! f62 * Bolsig+ C2H5 -> H2 C2H3^+
e + C2H5 => e + e + H2 + H + C2H2^+		! f63 * Bolsig+ C2H5 -> H2 H C2H2^+
e + C2H5 => e + e + CH2 + CH3^+		! f64 * Bolsig+ C2H5 -> CH2 CH3^+
e + C2H5 => e + e + CH3 + CH2^+		! f65 * Bolsig+ C2H5 -> CH3 CH2^+
e + C2H5 => e + e + CH4 + CH^+		! f66 * Bolsig+ C2H5 -> CH4 CH^+
e + C2H4 => e + e + C2H4^+		! f67 * Bolsig+ C2H4 -> C2H4^+
e + C2H4(v1) => e + e + C2H4^+		! f67 * Bolsig+ C2H4(v1) -> C2H4^+
e + C2H4(v2) => e + e + C2H4^+		! f67 * Bolsig+ C2H4(v2) -> C2H4^+
e + C2H4 => e + e + H + C2H3^+		! f68 * Bolsig+ C2H4 -> H C2H3^+
e + C2H4(v1) => e + e + H + C2H3^+		! f68 * Bolsig+ C2H4(v1) -> H C2H3^+
e + C2H4(v2) => e + e + H + C2H3^+		! f68 * Bolsig+ C2H4(v2) -> H C2H3^+
e + C2H4 => e + e + CH + CH3^+		! f69 * Bolsig+ C2H4 -> CH CH3^+
e + C2H4(v1) => e + e + CH + CH3^+		! f69 * Bolsig+ C2H4(v1) -> CH CH3^+
e + C2H4(v2) => e + e + CH + CH3^+		! f69 * Bolsig+ C2H4(v2) -> CH CH3^+
e + C2H4 => e + e + CH2 + CH2^+		! f70 * Bolsig+ C2H4 -> CH2 CH2^+
e + C2H4(v1) => e + e + CH2 + CH2^+		! f70 * Bolsig+ C2H4(v1) -> CH2 CH2^+
e + C2H4(v2) => e + e + CH2 + CH2^+		! f70 * Bolsig+ C2H4(v2) -> CH2 CH2^+
e + C2H4 => e + e + CH3 + CH^+		! f71 * Bolsig+ C2H4 -> CH3 CH^+
e + C2H4(v1) => e + e + CH3 + CH^+		! f71 * Bolsig+ C2H4(v1) -> CH3 CH^+
e + C2H4(v2) => e + e + CH3 + CH^+		! f71 * Bolsig+ C2H4(v2) -> CH3 CH^+
e + C2H3 => e + e + C2H3^+		! f72 * Bolsig+ C2H3 -> C2H3^+
e + C2H3 => e + e + H + C2H2^+		! f73 * Bolsig+ C2H3 -> H C2H2^+
e + C2H3 => e + e + CH + CH2^+		! f74 * Bolsig+ C2H3 -> CH CH2^+
e + C2H3 => e + e + CH2 + CH^+		! f75 * Bolsig+ C2H3 -> CH2 CH^+
e + C2H3 => e + e + C2H2 + H^+		! f76 * Bolsig+ C2H3 -> C2H2 H^+
e + C2H2 => e + e + C2H2^+		! f77 * Bolsig+ C2H2 -> C2H2^+
e + C2H2(v5) => e + e + C2H2^+		! f77 * Bolsig+ C2H2(v5) -> C2H2^+
e + C2H2(v2) => e + e + C2H2^+		! f77 * Bolsig+ C2H2(v2) -> C2H2^+
e + C2H2(v13) => e + e + C2H2^+		! f77 * Bolsig+ C2H2(v13) -> C2H2^+
e + C2H2 => e + e + CH + CH^+		! f78 * Bolsig+ C2H2 -> CH CH^+
e + C2H2(v5) => e + e + CH + CH^+		! f78 * Bolsig+ C2H2(v5) -> CH CH^+
e + C2H2(v2) => e + e + CH + CH^+		! f78 * Bolsig+ C2H2(v2) -> CH CH^+
e + C2H2(v13) => e + e + CH + CH^+		! f78 * Bolsig+ C2H2(v13) -> CH CH^+
e + C3H8 => e + C3H7 + H		! f79 * Bolsig+ C3H8 -> C3H7 H
e + C3H8(v1) => e + C3H7 + H		! f79 * Bolsig+ C3H8(v1) -> C3H7 H
e + C3H8(v2) => e + C3H7 + H		! f79 * Bolsig+ C3H8(v2) -> C3H7 H
e + C3H8 => e + C3H6 + H2		! f80 * Bolsig+ C3H8 -> C3H6 H2
e + C3H8(v1) => e + C3H6 + H2		! f80 * Bolsig+ C3H8(v1) -> C3H6 H2
e + C3H8(v2) => e + C3H6 + H2		! f80 * Bolsig+ C3H8(v2) -> C3H6 H2
e + C3H7 => e + C3H6 + H		! f81 * Bolsig+ C3H7 -> C3H6 H
e + C3H8 => e + e + C3H8^+		! f82 * Bolsig+ C3H8 -> C3H8^+
e + C3H8(v1) => e + e + C3H8^+		! f82 * Bolsig+ C3H8(v1) -> C3H8^+
e + C3H8(v2) => e + e + C3H8^+		! f82 * Bolsig+ C3H8(v2) -> C3H8^+
e + C3H8 => e + e + H + C3H7^+		! f83 * Bolsig+ C3H8 -> H C3H7^+
e + C3H8(v1) => e + e + H + C3H7^+		! f83 * Bolsig+ C3H8(v1) -> H C3H7^+
e + C3H8(v2) => e + e + H + C3H7^+		! f83 * Bolsig+ C3H8(v2) -> H C3H7^+
e + C3H8 => e + e + H2 + C3H6^+		! f84 * Bolsig+ C3H8 -> H2 C3H6^+
e + C3H8(v1) => e + e + H2 + C3H6^+		! f84 * Bolsig+ C3H8(v1) -> H2 C3H6^+
e + C3H8(v2) => e + e + H2 + C3H6^+		! f84 * Bolsig+ C3H8(v2) -> H2 C3H6^+
e + C3H7 => e + e + C3H7^+		! f85 * Bolsig+ C3H7 -> C3H7^+
e + C3H7 => e + e + H + C3H6^+		! f86 * Bolsig+ C3H7 -> H C3H6^+
e + C3H6 => e + e + C3H6^+		! f87 * Bolsig+ C3H6 -> C3H6^+
e + C3H6(v) => e + e + C3H6^+		! f87 * Bolsig+ C3H6(v) -> C3H6^+
e + C3H6 => e + C2H2 + CH4		! f88 * Bolsig+ C3H6 -> C2H2 CH4
e + C3H6(v) => e + C2H2 + CH4		! f88 * Bolsig+ C3H6(v) -> C2H2 CH4
e + C3H6 => e + e + C2H2 + CH4^+		! f89 * Bolsig+ C3H6 -> C2H2 CH4^+
e + C3H6(v) => e + e + C2H2 + CH4^+		! f89 * Bolsig+ C3H6(v) -> C2H2 CH4^+

# Ion Recombination Reaction
e + e + CH^+ => e + CH		! f90 * 1.00d0
e + e + CH2^+ => e + CH2		! f91 * 1.00d0
e + e + CH3^+ => e + CH3		! f92 * 1.00d0
e + e + CH4^+ => e + CH4		! f93 * 1.00d0
e + e + C2H2^+ => e + C2H2		! f94 * 1.00d0
e + e + C2H3^+ => e + C2H3		! f95 * 1.00d0
e + e + C2H4^+ => e + C2H4		! f96 * 1.00d0
e + e + C2H5^+ => e + C2H5		! f97 * 1.00d0
e + e + C2H6^+ => e + C2H6		! f98 * 1.00d0
e + e + C3H6^+ => e + C3H6		! f99 * 1.00d0
e + e + C3H7^+ => e + C3H7		! f100 * 1.00d0
e + e + C3H8^+ => e + C3H8		! f101 * 1.00d0

# Gas Phase Reaction
e + CH4^+ => CH3 + H		! f102 * 1.18d-08 * (300./Tgas)**0.5
e + CH4^+ => CH2 + H + H		! f103 * 2.42d-08 * (300./Tgas)**0.5
e + CH4^+ => CH + H2 + H		! f104 * 1.41d-08 * (300./Tgas)**0.5
e + CH3^+ => CH2 + H		! f105 * 2.25d-08 * (300./Tgas)**0.5
e + CH3^+ => CH + H2		! f106 * 7.88d-09 * (300./Tgas)**0.5
e + CH3^+ => CH + H + H		! f107 * 9.00d-09 * (300./Tgas)**0.5
e + CH3^+ => C + H2 + H		! f108 * 1.69d-08 * (300./Tgas)**0.5
e + CH2^+ => CH + H		! f109 * 1.00d-08 * (300./Tgas)**0.5
e + CH2^+ => C + H2		! f110 * 4.82d-09 * (300./Tgas)**0.5
e + CH2^+ => C + H + H		! f111 * 2.53d-08 * (300./Tgas)**0.5
e + CH^+ => C + H		! f112 * 3.23d-08 * (300./Tgas)**0.42
e + C2H6^+ => C2H5 + H		! f113 * 2.19d-08 * (300./Tgas)**0.71
e + C2H6^+ => C2H4 + H + H		! f114 * 3.36d-08 * (300./Tgas)**0.71
e + C2H5^+ => C2H4 + H		! f115 * 7.70d-09 * (300./Tgas)**0.71
e + C2H5^+ => C2H3 + H + H		! f116 * 1.92d-08 * (300./Tgas)**0.71
e + C2H5^+ => C2H2 + H2 + H		! f117 * 1.60d-08 * (300./Tgas)**0.71
e + C2H5^+ => C2H2 + H + H + H		! f118 * 8.98d-09 * (300./Tgas)**0.71
e + C2H5^+ => CH3 + CH2		! f119 * 9.62d-09 * (300./Tgas)**0.71
e + C2H4^+ => C2H3 + H		! f120 * 8.29d-09 * (300./Tgas)**0.71
e + C2H4^+ => C2H2 + H + H		! f121 * 3.43d-08 * (300./Tgas)**0.71
e + C2H3^+ => C2H2 + H		! f122 * 1.34d-08 * (300./Tgas)**0.71
e + C2H2^+ => CH + CH		! f123 * 4.87d-09 * (300./Tgas)**0.71
e + H2^+ => H + H		! f124 * 3.17d21/(6.022d23 * Te**4.5)
e + H3^+ => H + H2		! f125 * 3.17d21/(6.022d23 * Te**4.5)
H2 + H2^+ => H + H3^+		! f126 * 2.11d-09
C2H6 + CH4^+ => CH4 + H2 + C2H4^+		! f127 * 1.91d-9
C2H6(v24) + CH4^+ => CH4 + H2 + C2H4^+		! f127 * 1.91d-9
C2H6(v13) + CH4^+ => CH4 + H2 + C2H4^+		! f127 * 1.91d-9
C2H4 + CH4^+ => CH3 + C2H5^+		! f128 * 4.23d-10