ELEMENTS
e C H
END

SPECIES
e C CH CH^+ CH2 CH2^+ CH3 CH3^+ CH4 CH4(v13) CH4(v24) CH4^+ C2H2 C2H2(v13) C2H2(v2) C2H2(v5) C2H2^+ C2H3 C2H3^+ C2H4 C2H4(v1) C2H4(v2) C2H4^+ C2H5 C2H5^+
C2H6 C2H6(v13) C2H6(v24) C2H6^+ C3H5 C3H6 C3H6(v) C3H6^+ C3H7 C3H7^+ C3H8 C3H8(v1) C3H8(v2) C3H8^+ C4H9 C4H9H C2H C5H12 H H2 H2^+ H3^+ H^+
END

BOLSIG
CH CH2 CH3 CH4 CH4(v13) CH4(v24) C2H2 C2H2(v13) C2H2(v2) C2H2(v5) C2H3 C2H4 C2H4(v1) C2H4(v2) C2H5 C2H6 C2H6(v13) C2H6(v24) C3H6 C3H6(v) C3H7 C3H8 C3H8(v1) C3H8(v2)
END

REACTIONS
# Gas Constant
$ double precision, parameter :: R = 8.314d-3

# Compensation Parameters
$ double precision, parameter :: f0 = 4.4092d-4
$ double precision, parameter :: f1 = 5.0644d+1
$ double precision, parameter :: f2 = 2.5990d-5
$ double precision, parameter :: f3 = 1.9020d+2
$ double precision, parameter :: f4 = 9.2210d-7
$ double precision, parameter :: f5 = 6.9759d-1
$ double precision, parameter :: f6 = 3.0639d-3
$ double precision, parameter :: f7 = 1.9059d-3
$ double precision, parameter :: f8 = 5.1984d-8
$ double precision, parameter :: f9 = 3.5993d-1
$ double precision, parameter :: f10 = 2.9788d-4
$ double precision, parameter :: f11 = 2.2764d+2
$ double precision, parameter :: f12 = 1.6612d-5
$ double precision, parameter :: f13 = 4.4757d-4
$ double precision, parameter :: f14 = 4.4806d+1
$ double precision, parameter :: f15 = 6.4401d-8
$ double precision, parameter :: f16 = 4.9749d+2
$ double precision, parameter :: f17 = 2.7261d-6
$ double precision, parameter :: f18 = 8.0882d+2
$ double precision, parameter :: f19 = 2.5305d-6
$ double precision, parameter :: f20 = 2.2857d-6
$ double precision, parameter :: f21 = 2.1288d-2
$ double precision, parameter :: f22 = 2.4538d-7
$ double precision, parameter :: f23 = 3.1768d+1
$ double precision, parameter :: f24 = 1.1468d-6
$ double precision, parameter :: f25 = 1.8414d-7
$ double precision, parameter :: f26 = 2.0879d-7
$ double precision, parameter :: f27 = 5.1999d+2
$ double precision, parameter :: f28 = 2.8143d-3
$ double precision, parameter :: f29 = 3.2090d+1
$ double precision, parameter :: f30 = 1.8318d-3
$ double precision, parameter :: f31 = 3.5516d-7
$ double precision, parameter :: f32 = 1.6569d-5
$ double precision, parameter :: f33 = 2.0528d-1
$ double precision, parameter :: f34 = 1.3690d0
$ double precision, parameter :: f35 = 1.8031d-5
$ double precision, parameter :: f36 = 7.0790d-1
$ double precision, parameter :: f37 = 3.2528d-4
$ double precision, parameter :: f38 = 8.4444d-8
$ double precision, parameter :: f39 = 4.8410d-4
$ double precision, parameter :: f40 = 7.1148d-2
$ double precision, parameter :: f41 = 3.1543d-5
$ double precision, parameter :: f42 = 3.6707d+1
$ double precision, parameter :: f43 = 8.7547d+2
$ double precision, parameter :: f44 = 3.0134d-8
$ double precision, parameter :: f45 = 8.3855d-3
$ double precision, parameter :: f46 = 1.1352d-1
$ double precision, parameter :: f47 = 4.2760d-5
$ double precision, parameter :: f48 = 4.6612d+2
$ double precision, parameter :: f49 = 1.0750d-3
$ double precision, parameter :: f50 = 1.5840d-2
$ double precision, parameter :: f51 = 1.6073d-8
$ double precision, parameter :: f52 = 1.2479d-8
$ double precision, parameter :: f53 = 1.7844d+2
$ double precision, parameter :: f54 = 2.5020d-2
$ double precision, parameter :: f55 = 3.1014d-2
$ double precision, parameter :: f56 = 1.3730d-8
$ double precision, parameter :: f57 = 2.2431d-2
$ double precision, parameter :: f58 = 7.0893d-2
$ double precision, parameter :: f59 = 2.0830d-7
$ double precision, parameter :: f60 = 8.4282d-1
$ double precision, parameter :: f61 = 7.2031d+2
$ double precision, parameter :: f62 = 4.9326d-7
$ double precision, parameter :: f63 = 1.1487d0
$ double precision, parameter :: f64 = 9.9801d+2
$ double precision, parameter :: f65 = 3.2389d-8
$ double precision, parameter :: f66 = 2.9185d-5
$ double precision, parameter :: f67 = 6.5813d-8
$ double precision, parameter :: f68 = 1.3711d-5
$ double precision, parameter :: f69 = 8.4752d+1
$ double precision, parameter :: f70 = 2.1455d-7
$ double precision, parameter :: f71 = 2.6998d+2
$ double precision, parameter :: f72 = 3.1758d+1
$ double precision, parameter :: f73 = 2.4249d+1
$ double precision, parameter :: f74 = 9.8724d-6
$ double precision, parameter :: f75 = 3.0470d-3
$ double precision, parameter :: f76 = 3.8469d-8
$ double precision, parameter :: f77 = 1.0022d0
$ double precision, parameter :: f78 = 1.4027d+2
$ double precision, parameter :: f79 = 8.7358d-8
$ double precision, parameter :: f80 = 9.8392d-5
$ double precision, parameter :: f81 = 1.4705d-5
$ double precision, parameter :: f82 = 1.8943d-7
$ double precision, parameter :: f83 = 5.7376d-3
$ double precision, parameter :: f84 = 2.6420d-5
$ double precision, parameter :: f85 = 1.1845d-3
$ double precision, parameter :: f86 = 3.9810d0
$ double precision, parameter :: f87 = 8.9563d-7
$ double precision, parameter :: f88 = 2.8583d-6
$ double precision, parameter :: f89 = 5.5315d+1
$ double precision, parameter :: f90 = 2.1916d-8
$ double precision, parameter :: f91 = 2.7420d-8
$ double precision, parameter :: f92 = 5.5561d-4
$ double precision, parameter :: f93 = 3.7033d-2
$ double precision, parameter :: f94 = 5.8554d0
$ double precision, parameter :: f95 = 4.3694d-6
$ double precision, parameter :: f96 = 2.6752d-1
$ double precision, parameter :: f97 = 4.9175d-6
$ double precision, parameter :: f98 = 4.7711d-5
$ double precision, parameter :: f99 = 2.8153d0
$ double precision, parameter :: f100 = 2.9604d-4
$ double precision, parameter :: f101 = 8.5461d-5
$ double precision, parameter :: f102 = 4.9499d-4
$ double precision, parameter :: f103 = 2.2830d-7
$ double precision, parameter :: f104 = 2.5153d0
$ double precision, parameter :: f105 = 3.0655d-3
$ double precision, parameter :: f106 = 3.0994d-5
$ double precision, parameter :: f107 = 3.4653d-4
$ double precision, parameter :: f108 = 3.8926d-6
$ double precision, parameter :: f109 = 2.4587d-4
$ double precision, parameter :: f110 = 8.3976d-4
$ double precision, parameter :: f111 = 3.8612d-1
$ double precision, parameter :: f112 = 8.7752d+1
$ double precision, parameter :: f113 = 2.3053d-7
$ double precision, parameter :: f114 = 7.4229d-3
$ double precision, parameter :: f115 = 1.8306d-5
$ double precision, parameter :: f116 = 1.6946d+1
$ double precision, parameter :: f117 = 1.0173d-1
$ double precision, parameter :: f118 = 3.8345d-6
$ double precision, parameter :: f119 = 6.1786d-5
$ double precision, parameter :: f120 = 2.5279d-8
$ double precision, parameter :: f121 = 1.2182d0
$ double precision, parameter :: f122 = 6.4425d-4
$ double precision, parameter :: f123 = 1.4381d-2
$ double precision, parameter :: f124 = 4.2706d-6
$ double precision, parameter :: f125 = 4.6059d+2
$ double precision, parameter :: f126 = 2.7780d-3
$ double precision, parameter :: f127 = 7.3684d-3
$ double precision, parameter :: f128 = 6.5636d-7
$ double precision, parameter :: f129 = 2.5772d-7
$ double precision, parameter :: f130 = 3.5717d-3
$ double precision, parameter :: f131 = 8.0965d0
$ double precision, parameter :: f132 = 1.0931d-7
$ double precision, parameter :: f133 = 7.1664d-7
$ double precision, parameter :: f134 = 5.7184d-7
$ double precision, parameter :: f135 = 5.7360d-6
$ double precision, parameter :: f136 = 3.1925d-1
$ double precision, parameter :: f137 = 1.0712d-2
$ double precision, parameter :: f138 = 2.2743d-6
$ double precision, parameter :: f139 = 1.4190d-4
$ double precision, parameter :: f140 = 1.1287d-7
$ double precision, parameter :: f141 = 2.2849d-1
$ double precision, parameter :: f142 = 2.0671d-4
$ double precision, parameter :: f143 = 1.0924d-3
$ double precision, parameter :: f144 = 9.5958d-6
$ double precision, parameter :: f145 = 1.4673d-8
$ double precision, parameter :: f146 = 1.6274d-5
$ double precision, parameter :: f147 = 4.1544d-6
$ double precision, parameter :: f148 = 4.7939d-8
$ double precision, parameter :: f149 = 3.2108d-2
$ double precision, parameter :: f150 = 7.4966d-3
$ double precision, parameter :: f151 = 4.4936d-7
$ double precision, parameter :: f152 = 1.0667d-5
$ double precision, parameter :: f153 = 1.2845d+2
$ double precision, parameter :: f154 = 5.2423d-3
$ double precision, parameter :: f155 = 1.6526d-4
$ double precision, parameter :: f156 = 3.1871d-2
$ double precision, parameter :: f157 = 7.0224d-7
$ double precision, parameter :: f158 = 9.9668d-7
$ double precision, parameter :: f159 = 2.1738d-1
$ double precision, parameter :: f160 = 3.2260d-6
$ double precision, parameter :: f161 = 9.9575d0
$ double precision, parameter :: f162 = 1.0349d+1
$ double precision, parameter :: f163 = 1.2201d-7
$ double precision, parameter :: f164 = 3.4596d-2
$ double precision, parameter :: f165 = 3.6968d-5
$ double precision, parameter :: f166 = 4.4568d-3
$ double precision, parameter :: f167 = 3.2344d-8
$ double precision, parameter :: f168 = 7.4095d-4
$ double precision, parameter :: f169 = 1.2337d-4
$ double precision, parameter :: f170 = 1.1072d-2
$ double precision, parameter :: f171 = 6.0485d0
$ double precision, parameter :: f172 = 2.1331d-7
$ double precision, parameter :: f173 = 4.8351d-8
$ double precision, parameter :: f174 = 2.7554d-5
$ double precision, parameter :: f175 = 8.9468d+1
$ double precision, parameter :: f176 = 1.0523d-1
$ double precision, parameter :: f177 = 4.9332d-4
$ double precision, parameter :: f178 = 5.2916d+2
$ double precision, parameter :: f179 = 7.8165d-2
$ double precision, parameter :: f180 = 2.4687d-2
$ double precision, parameter :: f181 = 1.0705d-6
$ double precision, parameter :: f182 = 1.0947d+1
$ double precision, parameter :: f183 = 2.9029d-4
$ double precision, parameter :: f184 = 5.5981d-7
$ double precision, parameter :: f185 = 4.2219d-7
$ double precision, parameter :: f186 = 5.1585d-4
$ double precision, parameter :: f187 = 2.1761d0
$ double precision, parameter :: f188 = 2.4113d+2
$ double precision, parameter :: f189 = 3.8152d+2
$ double precision, parameter :: f190 = 5.0602d-1
$ double precision, parameter :: f191 = 2.1486d+1
$ double precision, parameter :: f192 = 3.3158d-3
$ double precision, parameter :: f193 = 1.9380d-7
$ double precision, parameter :: f194 = 4.4529d-6
$ double precision, parameter :: f195 = 3.8700d-3
$ double precision, parameter :: f196 = 3.9279d+2
$ double precision, parameter :: f197 = 1.1994d-6
$ double precision, parameter :: f198 = 6.4091d0
$ double precision, parameter :: f199 = 3.4762d-6
$ double precision, parameter :: f200 = 9.8915d-3
$ double precision, parameter :: f201 = 5.7590d+2
$ double precision, parameter :: f202 = 1.1222d-7
$ double precision, parameter :: f203 = 3.9180d+2
$ double precision, parameter :: f204 = 6.2471d-1
$ double precision, parameter :: f205 = 8.7494d+1
$ double precision, parameter :: f206 = 2.5245d-3
$ double precision, parameter :: f207 = 7.1039d+1
$ double precision, parameter :: f208 = 1.2211d-5
$ double precision, parameter :: f209 = 1.9696d-4
$ double precision, parameter :: f210 = 2.1277d-5
$ double precision, parameter :: f211 = 1.1510d-8
$ double precision, parameter :: f212 = 8.8768d+2
$ double precision, parameter :: f213 = 1.0532d+2
$ double precision, parameter :: f214 = 4.4698d-8
$ double precision, parameter :: f215 = 5.9913d-4
$ double precision, parameter :: f216 = 2.6962d-1
$ double precision, parameter :: f217 = 2.1511d+2
$ double precision, parameter :: f218 = 1.7703d-6
$ double precision, parameter :: f219 = 1.5936d0
$ double precision, parameter :: f220 = 2.8786d-7
$ double precision, parameter :: f221 = 2.8726d-3
$ double precision, parameter :: f222 = 8.0188d-5
$ double precision, parameter :: f223 = 4.4335d-2
$ double precision, parameter :: f224 = 5.1562d-2
$ double precision, parameter :: f225 = 4.1361d-1
$ double precision, parameter :: f226 = 2.7292d-6
$ double precision, parameter :: f227 = 2.3129d-4
$ double precision, parameter :: f228 = 1.3261d0
$ double precision, parameter :: f229 = 2.7957d-6
$ double precision, parameter :: f230 = 5.0059d-6
$ double precision, parameter :: f231 = 6.9317d-5
$ double precision, parameter :: f232 = 5.1219d-1
$ double precision, parameter :: f233 = 5.0968d-4
$ double precision, parameter :: f234 = 1.1396d-4
$ double precision, parameter :: f235 = 1.8890d-8
$ double precision, parameter :: f236 = 2.0194d-7
$ double precision, parameter :: f237 = 1.2293d-8
$ double precision, parameter :: f238 = 3.0796d-1
$ double precision, parameter :: f239 = 9.4021d-4
$ double precision, parameter :: f240 = 2.8963d+2
$ double precision, parameter :: f241 = 2.0871d-1
$ double precision, parameter :: f242 = 2.5227d+2
$ double precision, parameter :: f243 = 5.1774d-4
$ double precision, parameter :: f244 = 2.8782d-2
$ double precision, parameter :: f245 = 5.6668d+1
$ double precision, parameter :: f246 = 8.1392d-3
$ double precision, parameter :: f247 = 7.9038d-3
$ double precision, parameter :: f248 = 8.2765d+2
$ double precision, parameter :: f249 = 4.6266d-3
$ double precision, parameter :: f250 = 1.0129d-8
$ double precision, parameter :: f251 = 4.8580d-6
$ double precision, parameter :: f252 = 1.0171d-1
$ double precision, parameter :: f253 = 2.1580d-4
$ double precision, parameter :: f254 = 1.7155d+1
$ double precision, parameter :: f255 = 1.7773d-6
$ double precision, parameter :: f256 = 1.4320d+1
$ double precision, parameter :: f257 = 1.7255d-8
$ double precision, parameter :: f258 = 5.1247d-4
$ double precision, parameter :: f259 = 2.8768d-5
$ double precision, parameter :: f260 = 6.3151d+1
$ double precision, parameter :: f261 = 1.2052d+1
$ double precision, parameter :: f262 = 3.3904d-2
$ double precision, parameter :: f263 = 6.8359d-4
$ double precision, parameter :: f264 = 5.6435d-1
$ double precision, parameter :: f265 = 4.7410d-8
$ double precision, parameter :: f266 = 1.6388d+2
$ double precision, parameter :: f267 = 2.3050d0
$ double precision, parameter :: f268 = 1.1493d-8
$ double precision, parameter :: f269 = 1.4845d0
$ double precision, parameter :: f270 = 7.8385d-6
$ double precision, parameter :: f271 = 3.8907d-1
$ double precision, parameter :: f272 = 4.9686d-8
$ double precision, parameter :: f273 = 3.2096d0
$ double precision, parameter :: f274 = 8.3045d-1
$ double precision, parameter :: f275 = 1.0949d-5
$ double precision, parameter :: f276 = 8.3663d-3
$ double precision, parameter :: f277 = 1.7382d0
$ double precision, parameter :: f278 = 9.8922d-7
$ double precision, parameter :: f279 = 2.2233d+2
$ double precision, parameter :: f280 = 3.5177d+1
$ double precision, parameter :: f281 = 2.5935d-8
$ double precision, parameter :: f282 = 4.7083d-1
$ double precision, parameter :: f283 = 1.1569d-3
$ double precision, parameter :: f284 = 2.7133d+1
$ double precision, parameter :: f285 = 2.7016d-5
$ double precision, parameter :: f286 = 7.0744d-1
$ double precision, parameter :: f287 = 1.1285d-5
$ double precision, parameter :: f288 = 5.7619d-6
$ double precision, parameter :: f289 = 2.7750d-3
$ double precision, parameter :: f290 = 2.6314d-1
$ double precision, parameter :: f291 = 1.8664d-1
$ double precision, parameter :: f292 = 7.5482d-4
$ double precision, parameter :: f293 = 2.2053d-6
$ double precision, parameter :: f294 = 7.6498d-5
$ double precision, parameter :: f295 = 2.4465d-5
$ double precision, parameter :: f296 = 1.4865d-4
$ double precision, parameter :: f297 = 6.1725d-5
$ double precision, parameter :: f298 = 1.5310d-7
$ double precision, parameter :: f299 = 1.4031d-7
$ double precision, parameter :: f300 = 4.6649d-2
$ double precision, parameter :: f301 = 7.0225d0
$ double precision, parameter :: f302 = 6.5445d-3
$ double precision, parameter :: f303 = 1.5704d-5
$ double precision, parameter :: f304 = 3.3315d-6
$ double precision, parameter :: f305 = 1.7753d-5
$ double precision, parameter :: f306 = 1.5402d-6
$ double precision, parameter :: f307 = 2.5141d+2
$ double precision, parameter :: f308 = 9.7869d0
$ double precision, parameter :: f309 = 1.8004d-7
$ double precision, parameter :: f310 = 3.6636d-5
$ double precision, parameter :: f311 = 1.0942d-7
$ double precision, parameter :: f312 = 1.4593d-8
$ double precision, parameter :: f313 = 3.9644d-5
$ double precision, parameter :: f314 = 8.0689d-2
$ double precision, parameter :: f315 = 5.1565d-6

# Electron Collision Reaction
e + CH4 => e + CH4(v24)		! f0 * Bolsig+ CH4 -> CH4(v24)
e + CH4 => e + CH4(v13)		! f1 * Bolsig+ CH4 -> CH4(v13)
e + C2H6 => e + C2H6(v24)		! f2 * Bolsig+ C2H6 -> C2H6(v24)
e + C2H6 => e + C2H6(v13)		! f3 * Bolsig+ C2H6 -> C2H6(v13)
e + C2H4 => e + C2H4(v1)		! f4 * Bolsig+ C2H4 -> C2H4(v1)
e + C2H4 => e + C2H4(v2)		! f5 * Bolsig+ C2H4 -> C2H4(v2)
e + C2H2 => e + C2H2(v5)		! f6 * Bolsig+ C2H2 -> C2H2(v5)
e + C2H2 => e + C2H2(v2)		! f7 * Bolsig+ C2H2 -> C2H2(v2)
e + C2H2 => e + C2H2(v13)		! f8 * Bolsig+ C2H2 -> C2H2(v13)
e + C3H8 => e + C3H8(v1)		! f9 * Bolsig+ C3H8 -> C3H8(v1)
e + C3H8 => e + C3H8(v2)		! f10 * Bolsig+ C3H8 -> C3H8(v2)
e + C3H6 => e + C3H6(v)		! f11 * Bolsig+ C3H6 -> C3H6(v)
e + CH4 => e + CH3 + H		! f12 * Bolsig+ CH4 -> CH3 H
e + CH4(v24) => e + CH3 + H		! f12 * Bolsig+ CH4(v24) -> CH3 H
e + CH4(v13) => e + CH3 + H		! f12 * Bolsig+ CH4(v13) -> CH3 H
e + CH4 => e + CH2 + H2		! f13 * Bolsig+ CH4 -> CH2 H2
e + CH4(v24) => e + CH2 + H2		! f13 * Bolsig+ CH4(v24) -> CH2 H2
e + CH4(v13) => e + CH2 + H2		! f13 * Bolsig+ CH4(v13) -> CH2 H2
e + CH4 => e + CH + H2 + H		! f14 * Bolsig+ CH4 -> CH H2 H
e + CH4(v24) => e + CH + H2 + H		! f14 * Bolsig+ CH4(v24) -> CH H2 H
e + CH4(v13) => e + CH + H2 + H		! f14 * Bolsig+ CH4(v13) -> CH H2 H
e + CH4 => e + C + H2 + H2		! f15 * Bolsig+ CH4 -> C H2 H2
e + CH4(v24) => e + C + H2 + H2		! f15 * Bolsig+ CH4(v24) -> C H2 H2
e + CH4(v13) => e + C + H2 + H2		! f15 * Bolsig+ CH4(v13) -> C H2 H2
e + CH3 => e + CH2 + H		! f16 * Bolsig+ CH3 -> CH2 H
e + CH3 => e + CH + H2		! f17 * Bolsig+ CH3 -> CH H2
e + CH3 => e + C + H2 + H		! f18 * Bolsig+ CH3 -> C H2 H
e + CH2 => e + CH + H		! f19 * Bolsig+ CH2 -> CH H
e + CH2 => e + C + H2		! f20 * Bolsig+ CH2 -> C H2
e + CH2 => e + C + H + H		! f21 * Bolsig+ CH2 -> C H H
e + CH => e + C + H		! f22 * Bolsig+ CH -> C H
e + CH4 => e + e + CH4^+		! f23 * Bolsig+ CH4 -> CH4^+
e + CH4(v24) => e + e + CH4^+		! f23 * Bolsig+ CH4(v24) -> CH4^+
e + CH4(v13) => e + e + CH4^+		! f23 * Bolsig+ CH4(v13) -> CH4^+
e + CH4 => e + e + H + CH3^+		! f24 * Bolsig+ CH4 -> H CH3^+
e + CH4(v24) => e + e + H + CH3^+		! f24 * Bolsig+ CH4(v24) -> H CH3^+
e + CH4(v13) => e + e + H + CH3^+		! f24 * Bolsig+ CH4(v13) -> H CH3^+
e + CH4 => e + e + H2 + CH2^+		! f25 * Bolsig+ CH4 -> H2 CH2^+
e + CH4(v24) => e + e + H2 + CH2^+		! f25 * Bolsig+ CH4(v24) -> H2 CH2^+
e + CH4(v13) => e + e + H2 + CH2^+		! f25 * Bolsig+ CH4(v13) -> H2 CH2^+
e + CH4 => e + e + H2 + H + CH^+		! f26 * Bolsig+ CH4 -> H2 H CH^+
e + CH4(v24) => e + e + H2 + H + CH^+		! f26 * Bolsig+ CH4(v24) -> H2 H CH^+
e + CH4(v13) => e + e + H2 + H + CH^+		! f26 * Bolsig+ CH4(v13) -> H2 H CH^+
e + CH3 => e + e + CH3^+		! f27 * Bolsig+ CH3 -> CH3^+
e + CH3 => e + e + H + CH2^+		! f28 * Bolsig+ CH3 -> H CH2^+
e + CH3 => e + e + H2 + CH^+		! f29 * Bolsig+ CH3 -> H2 CH^+
e + CH2 => e + e + CH2^+		! f30 * Bolsig+ CH2 -> CH2^+
e + CH2 => e + e + H + CH^+		! f31 * Bolsig+ CH2 -> H CH^+
e + CH => e + e + CH^+		! f32 * Bolsig+ CH -> CH^+
e + C2H6 => e + C2H5 + H		! f33 * Bolsig+ C2H6 -> C2H5 H
e + C2H6(v24) => e + C2H5 + H		! f33 * Bolsig+ C2H6(v24) -> C2H5 H
e + C2H6(v13) => e + C2H5 + H		! f33 * Bolsig+ C2H6(v13) -> C2H5 H
e + C2H6 => e + C2H4 + H2		! f34 * Bolsig+ C2H6 -> C2H4 H2
e + C2H6(v24) => e + C2H4 + H2		! f34 * Bolsig+ C2H6(v24) -> C2H4 H2
e + C2H6(v13) => e + C2H4 + H2		! f34 * Bolsig+ C2H6(v13) -> C2H4 H2
e + C2H6 => e + C2H3 + H2 + H		! f35 * Bolsig+ C2H6 -> C2H3 H2 H
e + C2H6(v24) => e + C2H3 + H2 + H		! f35 * Bolsig+ C2H6(v24) -> C2H3 H2 H
e + C2H6(v13) => e + C2H3 + H2 + H		! f35 * Bolsig+ C2H6(v13) -> C2H3 H2 H
e + C2H6 => e + C2H2 + H2 + H2		! f36 * Bolsig+ C2H6 -> C2H2 H2 H2
e + C2H6(v24) => e + C2H2 + H2 + H2		! f36 * Bolsig+ C2H6(v24) -> C2H2 H2 H2
e + C2H6(v13) => e + C2H2 + H2 + H2		! f36 * Bolsig+ C2H6(v13) -> C2H2 H2 H2
e + C2H6 => e + CH4 + CH2		! f37 * Bolsig+ C2H6 -> CH4 CH2
e + C2H6(v24) => e + CH4 + CH2		! f37 * Bolsig+ C2H6(v24) -> CH4 CH2
e + C2H6(v13) => e + CH4 + CH2		! f37 * Bolsig+ C2H6(v13) -> CH4 CH2
e + C2H6 => e + CH3 + CH3		! f38 * Bolsig+ C2H6 -> CH3 CH3
e + C2H6(v24) => e + CH3 + CH3		! f38 * Bolsig+ C2H6(v24) -> CH3 CH3
e + C2H6(v13) => e + CH3 + CH3		! f38 * Bolsig+ C2H6(v13) -> CH3 CH3
e + C2H5 => e + C2H4 + H		! f39 * Bolsig+ C2H5 -> C2H4 H
e + C2H5 => e + C2H3 + H2		! f40 * Bolsig+ C2H5 -> C2H3 H2
e + C2H5 => e + C2H3 + H + H		! f41 * Bolsig+ C2H5 -> C2H3 H H
e + C2H5 => e + C2H2 + H2 + H		! f42 * Bolsig+ C2H5 -> C2H2 H2 H
e + C2H5 => e + CH4 + CH		! f43 * Bolsig+ C2H5 -> CH4 CH
e + C2H5 => e + CH3 + CH2		! f44 * Bolsig+ C2H5 -> CH3 CH2
e + C2H4 => e + C2H3 + H		! f45 * Bolsig+ C2H4 -> C2H3 H
e + C2H4(v1) => e + C2H3 + H		! f45 * Bolsig+ C2H4(v1) -> C2H3 H
e + C2H4(v2) => e + C2H3 + H		! f45 * Bolsig+ C2H4(v2) -> C2H3 H
e + C2H4 => e + C2H2 + H2		! f46 * Bolsig+ C2H4 -> C2H2 H2
e + C2H4(v1) => e + C2H2 + H2		! f46 * Bolsig+ C2H4(v1) -> C2H2 H2
e + C2H4(v2) => e + C2H2 + H2		! f46 * Bolsig+ C2H4(v2) -> C2H2 H2
e + C2H4 => e + C2H2 + H + H		! f47 * Bolsig+ C2H4 -> C2H2 H H
e + C2H4(v1) => e + C2H2 + H + H		! f47 * Bolsig+ C2H4(v1) -> C2H2 H H
e + C2H4(v2) => e + C2H2 + H + H		! f47 * Bolsig+ C2H4(v2) -> C2H2 H H
e + C2H4 => e + CH3 + CH		! f48 * Bolsig+ C2H4 -> CH3 CH
e + C2H4(v1) => e + CH3 + CH		! f48 * Bolsig+ C2H4(v1) -> CH3 CH
e + C2H4(v2) => e + CH3 + CH		! f48 * Bolsig+ C2H4(v2) -> CH3 CH
e + C2H4 => e + CH2 + CH2		! f49 * Bolsig+ C2H4 -> CH2 CH2
e + C2H4(v1) => e + CH2 + CH2		! f49 * Bolsig+ C2H4(v1) -> CH2 CH2
e + C2H4(v2) => e + CH2 + CH2		! f49 * Bolsig+ C2H4(v2) -> CH2 CH2
e + C2H3 => e + C2H2 + H		! f50 * Bolsig+ C2H3 -> C2H2 H
e + C2H3 => e + CH2 + CH		! f51 * Bolsig+ C2H3 -> CH2 CH
e + C2H2 => e + CH + CH		! f52 * Bolsig+ C2H2 -> CH CH
e + C2H2(v5) => e + CH + CH		! f52 * Bolsig+ C2H2(v5) -> CH CH
e + C2H2(v2) => e + CH + CH		! f52 * Bolsig+ C2H2(v2) -> CH CH
e + C2H2(v13) => e + CH + CH		! f52 * Bolsig+ C2H2(v13) -> CH CH
e + C2H6 => e + e + C2H6^+		! f53 * Bolsig+ C2H6 -> C2H6^+
e + C2H6(v24) => e + e + C2H6^+		! f53 * Bolsig+ C2H6(v24) -> C2H6^+
e + C2H6(v13) => e + e + C2H6^+		! f53 * Bolsig+ C2H6(v13) -> C2H6^+
e + C2H6 => e + e + H + C2H5^+		! f54 * Bolsig+ C2H6 -> H C2H5^+
e + C2H6(v24) => e + e + H + C2H5^+		! f54 * Bolsig+ C2H6(v24) -> H C2H5^+
e + C2H6(v13) => e + e + H + C2H5^+		! f54 * Bolsig+ C2H6(v13) -> H C2H5^+
e + C2H6 => e + e + H2 + C2H4^+		! f55 * Bolsig+ C2H6 -> H2 C2H4^+
e + C2H6(v24) => e + e + H2 + C2H4^+		! f55 * Bolsig+ C2H6(v24) -> H2 C2H4^+
e + C2H6(v13) => e + e + H2 + C2H4^+		! f55 * Bolsig+ C2H6(v13) -> H2 C2H4^+
e + C2H6 => e + e + H2 + H + C2H3^+		! f56 * Bolsig+ C2H6 -> H2 H C2H3^+
e + C2H6(v24) => e + e + H2 + H + C2H3^+		! f56 * Bolsig+ C2H6(v24) -> H2 H C2H3^+
e + C2H6(v13) => e + e + H2 + H + C2H3^+		! f56 * Bolsig+ C2H6(v13) -> H2 H C2H3^+
e + C2H6 => e + e + H2 + H2 + C2H2^+		! f57 * Bolsig+ C2H6 -> H2 H2 C2H2^+
e + C2H6(v24) => e + e + H2 + H2 + C2H2^+		! f57 * Bolsig+ C2H6(v24) -> H2 H2 C2H2^+
e + C2H6(v13) => e + e + H2 + H2 + C2H2^+		! f57 * Bolsig+ C2H6(v13) -> H2 H2 C2H2^+
e + C2H6 => e + e + CH3 + CH3^+		! f58 * Bolsig+ C2H6 -> CH3 CH3^+
e + C2H6(v24) => e + e + CH3 + CH3^+		! f58 * Bolsig+ C2H6(v24) -> CH3 CH3^+
e + C2H6(v13) => e + e + CH3 + CH3^+		! f58 * Bolsig+ C2H6(v13) -> CH3 CH3^+
e + C2H6 => e + e + CH4 + CH2^+		! f59 * Bolsig+ C2H6 -> CH4 CH2^+
e + C2H6(v24) => e + e + CH4 + CH2^+		! f59 * Bolsig+ C2H6(v24) -> CH4 CH2^+
e + C2H6(v13) => e + e + CH4 + CH2^+		! f59 * Bolsig+ C2H6(v13) -> CH4 CH2^+
e + C2H5 => e + e + C2H5^+		! f60 * Bolsig+ C2H5 -> C2H5^+
e + C2H5 => e + e + H + C2H4^+		! f61 * Bolsig+ C2H5 -> H C2H4^+
e + C2H5 => e + e + H2 + C2H3^+		! f62 * Bolsig+ C2H5 -> H2 C2H3^+
e + C2H5 => e + e + H2 + H + C2H2^+		! f63 * Bolsig+ C2H5 -> H2 H C2H2^+
e + C2H5 => e + e + CH2 + CH3^+		! f64 * Bolsig+ C2H5 -> CH2 CH3^+
e + C2H5 => e + e + CH3 + CH2^+		! f65 * Bolsig+ C2H5 -> CH3 CH2^+
e + C2H5 => e + e + CH4 + CH^+		! f66 * Bolsig+ C2H5 -> CH4 CH^+
e + C2H4 => e + e + C2H4^+		! f67 * Bolsig+ C2H4 -> C2H4^+
e + C2H4(v1) => e + e + C2H4^+		! f67 * Bolsig+ C2H4(v1) -> C2H4^+
e + C2H4(v2) => e + e + C2H4^+		! f67 * Bolsig+ C2H4(v2) -> C2H4^+
e + C2H4 => e + e + H + C2H3^+		! f68 * Bolsig+ C2H4 -> H C2H3^+
e + C2H4(v1) => e + e + H + C2H3^+		! f68 * Bolsig+ C2H4(v1) -> H C2H3^+
e + C2H4(v2) => e + e + H + C2H3^+		! f68 * Bolsig+ C2H4(v2) -> H C2H3^+
e + C2H4 => e + e + CH + CH3^+		! f69 * Bolsig+ C2H4 -> CH CH3^+
e + C2H4(v1) => e + e + CH + CH3^+		! f69 * Bolsig+ C2H4(v1) -> CH CH3^+
e + C2H4(v2) => e + e + CH + CH3^+		! f69 * Bolsig+ C2H4(v2) -> CH CH3^+
e + C2H4 => e + e + CH2 + CH2^+		! f70 * Bolsig+ C2H4 -> CH2 CH2^+
e + C2H4(v1) => e + e + CH2 + CH2^+		! f70 * Bolsig+ C2H4(v1) -> CH2 CH2^+
e + C2H4(v2) => e + e + CH2 + CH2^+		! f70 * Bolsig+ C2H4(v2) -> CH2 CH2^+
e + C2H4 => e + e + CH3 + CH^+		! f71 * Bolsig+ C2H4 -> CH3 CH^+
e + C2H4(v1) => e + e + CH3 + CH^+		! f71 * Bolsig+ C2H4(v1) -> CH3 CH^+
e + C2H4(v2) => e + e + CH3 + CH^+		! f71 * Bolsig+ C2H4(v2) -> CH3 CH^+
e + C2H3 => e + e + C2H3^+		! f72 * Bolsig+ C2H3 -> C2H3^+
e + C2H3 => e + e + H + C2H2^+		! f73 * Bolsig+ C2H3 -> H C2H2^+
e + C2H3 => e + e + CH + CH2^+		! f74 * Bolsig+ C2H3 -> CH CH2^+
e + C2H3 => e + e + CH2 + CH^+		! f75 * Bolsig+ C2H3 -> CH2 CH^+
e + C2H3 => e + e + C2H2 + H^+		! f76 * Bolsig+ C2H3 -> C2H2 H^+
e + C2H2 => e + e + C2H2^+		! f77 * Bolsig+ C2H2 -> C2H2^+
e + C2H2(v5) => e + e + C2H2^+		! f77 * Bolsig+ C2H2(v5) -> C2H2^+
e + C2H2(v2) => e + e + C2H2^+		! f77 * Bolsig+ C2H2(v2) -> C2H2^+
e + C2H2(v13) => e + e + C2H2^+		! f77 * Bolsig+ C2H2(v13) -> C2H2^+
e + C2H2 => e + e + CH + CH^+		! f78 * Bolsig+ C2H2 -> CH CH^+
e + C2H2(v5) => e + e + CH + CH^+		! f78 * Bolsig+ C2H2(v5) -> CH CH^+
e + C2H2(v2) => e + e + CH + CH^+		! f78 * Bolsig+ C2H2(v2) -> CH CH^+
e + C2H2(v13) => e + e + CH + CH^+		! f78 * Bolsig+ C2H2(v13) -> CH CH^+
e + C3H8 => e + C3H7 + H		! f79 * Bolsig+ C3H8 -> C3H7 H
e + C3H8(v1) => e + C3H7 + H		! f79 * Bolsig+ C3H8(v1) -> C3H7 H
e + C3H8(v2) => e + C3H7 + H		! f79 * Bolsig+ C3H8(v2) -> C3H7 H
e + C3H8 => e + C3H6 + H2		! f80 * Bolsig+ C3H8 -> C3H6 H2
e + C3H8(v1) => e + C3H6 + H2		! f80 * Bolsig+ C3H8(v1) -> C3H6 H2
e + C3H8(v2) => e + C3H6 + H2		! f80 * Bolsig+ C3H8(v2) -> C3H6 H2
e + C3H7 => e + C3H6 + H		! f81 * Bolsig+ C3H7 -> C3H6 H
e + C3H8 => e + e + C3H8^+		! f82 * Bolsig+ C3H8 -> C3H8^+
e + C3H8(v1) => e + e + C3H8^+		! f82 * Bolsig+ C3H8(v1) -> C3H8^+
e + C3H8(v2) => e + e + C3H8^+		! f82 * Bolsig+ C3H8(v2) -> C3H8^+
e + C3H8 => e + e + H + C3H7^+		! f83 * Bolsig+ C3H8 -> H C3H7^+
e + C3H8(v1) => e + e + H + C3H7^+		! f83 * Bolsig+ C3H8(v1) -> H C3H7^+
e + C3H8(v2) => e + e + H + C3H7^+		! f83 * Bolsig+ C3H8(v2) -> H C3H7^+
e + C3H8 => e + e + H2 + C3H6^+		! f84 * Bolsig+ C3H8 -> H2 C3H6^+
e + C3H8(v1) => e + e + H2 + C3H6^+		! f84 * Bolsig+ C3H8(v1) -> H2 C3H6^+
e + C3H8(v2) => e + e + H2 + C3H6^+		! f84 * Bolsig+ C3H8(v2) -> H2 C3H6^+
e + C3H7 => e + e + C3H7^+		! f85 * Bolsig+ C3H7 -> C3H7^+
e + C3H7 => e + e + H + C3H6^+		! f86 * Bolsig+ C3H7 -> H C3H6^+
e + C3H6 => e + e + C3H6^+		! f87 * Bolsig+ C3H6 -> C3H6^+
e + C3H6(v) => e + e + C3H6^+		! f87 * Bolsig+ C3H6(v) -> C3H6^+
e + C3H6 => e + C2H2 + CH4		! f88 * Bolsig+ C3H6 -> C2H2 CH4
e + C3H6(v) => e + C2H2 + CH4		! f88 * Bolsig+ C3H6(v) -> C2H2 CH4
e + C3H6 => e + e + C2H2 + CH4^+		! f89 * Bolsig+ C3H6 -> C2H2 CH4^+
e + C3H6(v) => e + e + C2H2 + CH4^+		! f89 * Bolsig+ C3H6(v) -> C2H2 CH4^+

# Ion Recombination Reaction
e + e + CH^+ => e + CH		! f90 * 1.00d0
e + e + CH2^+ => e + CH2		! f91 * 1.00d0
e + e + CH3^+ => e + CH3		! f92 * 1.00d0
e + e + CH4^+ => e + CH4		! f93 * 1.00d0
e + e + C2H2^+ => e + C2H2		! f94 * 1.00d0
e + e + C2H3^+ => e + C2H3		! f95 * 1.00d0
e + e + C2H4^+ => e + C2H4		! f96 * 1.00d0
e + e + C2H5^+ => e + C2H5		! f97 * 1.00d0
e + e + C2H6^+ => e + C2H6		! f98 * 1.00d0
e + e + C3H6^+ => e + C3H6		! f99 * 1.00d0
e + e + C3H7^+ => e + C3H7		! f100 * 1.00d0
e + e + C3H8^+ => e + C3H8		! f101 * 1.00d0

# Gas Phase Reaction
e + CH4^+ => CH3 + H		! f102 * 1.18d-08 * (300./Tgas)**0.5
e + CH4^+ => CH2 + H + H		! f103 * 2.42d-08 * (300./Tgas)**0.5
e + CH4^+ => CH + H2 + H		! f104 * 1.41d-08 * (300./Tgas)**0.5
e + CH3^+ => CH2 + H		! f105 * 2.25d-08 * (300./Tgas)**0.5
e + CH3^+ => CH + H2		! f106 * 7.88d-09 * (300./Tgas)**0.5
e + CH3^+ => CH + H + H		! f107 * 9.00d-09 * (300./Tgas)**0.5
e + CH3^+ => C + H2 + H		! f108 * 1.69d-08 * (300./Tgas)**0.5
e + CH2^+ => CH + H		! f109 * 1.00d-08 * (300./Tgas)**0.5
e + CH2^+ => C + H2		! f110 * 4.82d-09 * (300./Tgas)**0.5
e + CH2^+ => C + H + H		! f111 * 2.53d-08 * (300./Tgas)**0.5
e + CH^+ => C + H		! f112 * 3.23d-08 * (300./Tgas)**0.42
e + C2H6^+ => C2H5 + H		! f113 * 2.19d-08 * (300./Tgas)**0.71
e + C2H6^+ => C2H4 + H + H		! f114 * 3.36d-08 * (300./Tgas)**0.71
e + C2H5^+ => C2H4 + H		! f115 * 7.70d-09 * (300./Tgas)**0.71
e + C2H5^+ => C2H3 + H + H		! f116 * 1.92d-08 * (300./Tgas)**0.71
e + C2H5^+ => C2H2 + H2 + H		! f117 * 1.60d-08 * (300./Tgas)**0.71
e + C2H5^+ => C2H2 + H + H + H		! f118 * 8.98d-09 * (300./Tgas)**0.71
e + C2H5^+ => CH3 + CH2		! f119 * 9.62d-09 * (300./Tgas)**0.71
e + C2H4^+ => C2H3 + H		! f120 * 8.29d-09 * (300./Tgas)**0.71
e + C2H4^+ => C2H2 + H + H		! f121 * 3.43d-08 * (300./Tgas)**0.71
e + C2H3^+ => C2H2 + H		! f122 * 1.34d-08 * (300./Tgas)**0.71
e + C2H2^+ => CH + CH		! f123 * 4.87d-09 * (300./Tgas)**0.71
e + H2^+ => H + H		! f124 * 3.17d21/(6.022d23 * Te**4.5)
e + H3^+ => H + H2		! f125 * 3.17d21/(6.022d23 * Te**4.5)
H2 + H2^+ => H + H3^+		! f126 * 2.11d-09
C2H6 + CH4^+ => CH4 + H2 + C2H4^+		! f127 * 1.91d-9
C2H6(v24) + CH4^+ => CH4 + H2 + C2H4^+		! f127 * 1.91d-9
C2H6(v13) + CH4^+ => CH4 + H2 + C2H4^+		! f127 * 1.91d-9
C2H4 + CH4^+ => CH3 + C2H5^+		! f128 * 4.23d-10