ELEMENTS
e C H
END

SPECIES
e C CH CH^+ CH2 CH2^+ CH3 CH3^+ CH4 CH4(v13) CH4(v24) CH4^+ C2H2 C2H2(v13) C2H2(v2) C2H2(v5) C2H2^+ C2H3 C2H3^+ C2H4 C2H4(v1) C2H4(v2) C2H4^+ C2H5 C2H5^+
C2H6 C2H6(v13) C2H6(v24) C2H6^+ C3H5 C3H6 C3H6(v) C3H6^+ C3H7 C3H7^+ C3H8 C3H8(v1) C3H8(v2) C3H8^+ C4H9 C4H9H C2H C5H12 H H2 H2^+ H3^+ H^+
END

BOLSIG
CH CH2 CH3 CH4 CH4(v13) CH4(v24) C2H2 C2H2(v13) C2H2(v2) C2H2(v5) C2H3 C2H4 C2H4(v1) C2H4(v2) C2H5 C2H6 C2H6(v13) C2H6(v24) C3H6 C3H6(v) C3H7 C3H8 C3H8(v1) C3H8(v2)
END

REACTIONS
# Gas Constant
$ double precision, parameter :: R = 8.314d-3

# Compensation Parameters
$ double precision, parameter :: f0 = 7.3946d-6
$ double precision, parameter :: f1 = 1.1065d-7
$ double precision, parameter :: f2 = 3.9217d-2
$ double precision, parameter :: f3 = 1.3720d-4
$ double precision, parameter :: f4 = 6.8375d-2
$ double precision, parameter :: f5 = 1.9449d-3
$ double precision, parameter :: f6 = 4.0241d-7
$ double precision, parameter :: f7 = 2.8085d+1
$ double precision, parameter :: f8 = 2.1170d0
$ double precision, parameter :: f9 = 3.6683d-1
$ double precision, parameter :: f10 = 2.5689d-1
$ double precision, parameter :: f11 = 1.0687d+2
$ double precision, parameter :: f12 = 8.8849d+1
$ double precision, parameter :: f13 = 2.1292d-3
$ double precision, parameter :: f14 = 2.7987d-6
$ double precision, parameter :: f15 = 2.4084d-5
$ double precision, parameter :: f16 = 6.9219d-8
$ double precision, parameter :: f17 = 2.5414d-7
$ double precision, parameter :: f18 = 5.4486d-1
$ double precision, parameter :: f19 = 1.8818d-2
$ double precision, parameter :: f20 = 1.3368d-6
$ double precision, parameter :: f21 = 1.2409d-2
$ double precision, parameter :: f22 = 1.3700d0
$ double precision, parameter :: f23 = 1.9336d-2
$ double precision, parameter :: f24 = 5.4013d-2
$ double precision, parameter :: f25 = 9.0066d-8
$ double precision, parameter :: f26 = 4.9726d-4
$ double precision, parameter :: f27 = 3.5841d-5
$ double precision, parameter :: f28 = 1.7079d+1
$ double precision, parameter :: f29 = 6.5676d-4
$ double precision, parameter :: f30 = 7.6786d-3
$ double precision, parameter :: f31 = 4.5890d-1
$ double precision, parameter :: f32 = 2.8623d+1
$ double precision, parameter :: f33 = 2.2395d-1
$ double precision, parameter :: f34 = 2.1550d0
$ double precision, parameter :: f35 = 3.6874d+2
$ double precision, parameter :: f36 = 3.7437d0
$ double precision, parameter :: f37 = 1.1898d-7
$ double precision, parameter :: f38 = 1.9239d-1
$ double precision, parameter :: f39 = 3.4894d+2
$ double precision, parameter :: f40 = 3.2639d-5
$ double precision, parameter :: f41 = 9.5699d0
$ double precision, parameter :: f42 = 2.7923d-5
$ double precision, parameter :: f43 = 1.5357d-5
$ double precision, parameter :: f44 = 3.6437d-4
$ double precision, parameter :: f45 = 4.5197d-7
$ double precision, parameter :: f46 = 1.7197d-8
$ double precision, parameter :: f47 = 8.0211d-1
$ double precision, parameter :: f48 = 6.3666d0
$ double precision, parameter :: f49 = 2.8339d-1
$ double precision, parameter :: f50 = 9.4923d-2
$ double precision, parameter :: f51 = 1.8948d-1
$ double precision, parameter :: f52 = 1.2303d-8
$ double precision, parameter :: f53 = 1.2881d-7
$ double precision, parameter :: f54 = 3.7454d-1
$ double precision, parameter :: f55 = 9.1407d-3
$ double precision, parameter :: f56 = 1.1893d-2
$ double precision, parameter :: f57 = 1.2313d-4
$ double precision, parameter :: f58 = 5.2221d-5
$ double precision, parameter :: f59 = 5.4393d-7
$ double precision, parameter :: f60 = 2.0234d0
$ double precision, parameter :: f61 = 2.2643d-2
$ double precision, parameter :: f62 = 4.9732d+2
$ double precision, parameter :: f63 = 7.0861d+1
$ double precision, parameter :: f64 = 1.1530d-8
$ double precision, parameter :: f65 = 1.6916d-4
$ double precision, parameter :: f66 = 5.0532d+2
$ double precision, parameter :: f67 = 1.9934d-1
$ double precision, parameter :: f68 = 1.2529d-6
$ double precision, parameter :: f69 = 2.3676d-8
$ double precision, parameter :: f70 = 2.5776d-8
$ double precision, parameter :: f71 = 1.0818d-2
$ double precision, parameter :: f72 = 5.0983d-8
$ double precision, parameter :: f73 = 7.4076d-3
$ double precision, parameter :: f74 = 2.7545d-6
$ double precision, parameter :: f75 = 4.5375d-7
$ double precision, parameter :: f76 = 4.3149d-4
$ double precision, parameter :: f77 = 2.7287d-8
$ double precision, parameter :: f78 = 7.1415d-2
$ double precision, parameter :: f79 = 2.6991d-1
$ double precision, parameter :: f80 = 7.9390d-4
$ double precision, parameter :: f81 = 4.1539d-2
$ double precision, parameter :: f82 = 3.7043d-1
$ double precision, parameter :: f83 = 3.1127d-3
$ double precision, parameter :: f84 = 3.9490d-8
$ double precision, parameter :: f85 = 2.3861d0
$ double precision, parameter :: f86 = 1.4611d0
$ double precision, parameter :: f87 = 1.4470d-2
$ double precision, parameter :: f88 = 4.0873d-7
$ double precision, parameter :: f89 = 4.3411d-4
$ double precision, parameter :: f90 = 5.2452d-4
$ double precision, parameter :: f91 = 8.5278d-6
$ double precision, parameter :: f92 = 3.6088d+2
$ double precision, parameter :: f93 = 7.9689d-8
$ double precision, parameter :: f94 = 6.1325d-3
$ double precision, parameter :: f95 = 6.9467d-5
$ double precision, parameter :: f96 = 6.1573d+1
$ double precision, parameter :: f97 = 2.2087d-4
$ double precision, parameter :: f98 = 2.6747d0
$ double precision, parameter :: f99 = 1.3247d-6
$ double precision, parameter :: f100 = 7.4661d-1
$ double precision, parameter :: f101 = 7.6623d-6
$ double precision, parameter :: f102 = 6.3011d+1
$ double precision, parameter :: f103 = 2.6450d+1
$ double precision, parameter :: f104 = 5.9136d+2
$ double precision, parameter :: f105 = 7.7690d-5
$ double precision, parameter :: f106 = 4.8762d-4
$ double precision, parameter :: f107 = 1.5256d+2
$ double precision, parameter :: f108 = 2.3817d+2
$ double precision, parameter :: f109 = 1.1957d-3
$ double precision, parameter :: f110 = 6.8446d-2
$ double precision, parameter :: f111 = 2.5790d0
$ double precision, parameter :: f112 = 7.9656d-7
$ double precision, parameter :: f113 = 1.3273d+1
$ double precision, parameter :: f114 = 4.0928d-8
$ double precision, parameter :: f115 = 3.0029d-4
$ double precision, parameter :: f116 = 2.2411d-1
$ double precision, parameter :: f117 = 6.9195d+1
$ double precision, parameter :: f118 = 4.8554d0
$ double precision, parameter :: f119 = 2.8316d0
$ double precision, parameter :: f120 = 3.8766d-1
$ double precision, parameter :: f121 = 3.9129d-2
$ double precision, parameter :: f122 = 5.6687d-1
$ double precision, parameter :: f123 = 9.3414d-1
$ double precision, parameter :: f124 = 7.9037d-6
$ double precision, parameter :: f125 = 5.4791d-6
$ double precision, parameter :: f126 = 2.0082d-6
$ double precision, parameter :: f127 = 8.7520d-3
$ double precision, parameter :: f128 = 3.8125d+2
$ double precision, parameter :: f129 = 2.3273d-3
$ double precision, parameter :: f130 = 1.9520d-8
$ double precision, parameter :: f131 = 4.3347d+1
$ double precision, parameter :: f132 = 2.2303d+1
$ double precision, parameter :: f133 = 1.1254d-5
$ double precision, parameter :: f134 = 4.0271d-7
$ double precision, parameter :: f135 = 1.3032d-5
$ double precision, parameter :: f136 = 2.1578d-6
$ double precision, parameter :: f137 = 1.0104d-2
$ double precision, parameter :: f138 = 3.0744d-5
$ double precision, parameter :: f139 = 2.8677d-5
$ double precision, parameter :: f140 = 6.0514d-8
$ double precision, parameter :: f141 = 2.2225d0
$ double precision, parameter :: f142 = 4.1104d-8
$ double precision, parameter :: f143 = 5.8075d+2
$ double precision, parameter :: f144 = 1.8779d+2
$ double precision, parameter :: f145 = 1.7202d-4
$ double precision, parameter :: f146 = 7.3535d+2
$ double precision, parameter :: f147 = 4.1751d+1
$ double precision, parameter :: f148 = 5.2258d-4
$ double precision, parameter :: f149 = 7.0457d0
$ double precision, parameter :: f150 = 5.6074d0
$ double precision, parameter :: f151 = 3.7874d-7
$ double precision, parameter :: f152 = 1.9287d+1
$ double precision, parameter :: f153 = 1.5383d+1
$ double precision, parameter :: f154 = 5.9923d-1
$ double precision, parameter :: f155 = 1.1603d0
$ double precision, parameter :: f156 = 1.1728d-5
$ double precision, parameter :: f157 = 9.7507d+2
$ double precision, parameter :: f158 = 2.0966d-3
$ double precision, parameter :: f159 = 4.2522d-3
$ double precision, parameter :: f160 = 6.3621d-2
$ double precision, parameter :: f161 = 5.7052d-3
$ double precision, parameter :: f162 = 5.9624d0
$ double precision, parameter :: f163 = 1.0878d-3
$ double precision, parameter :: f164 = 4.1283d-4
$ double precision, parameter :: f165 = 4.6669d+1
$ double precision, parameter :: f166 = 1.1563d-6
$ double precision, parameter :: f167 = 5.5524d-2
$ double precision, parameter :: f168 = 1.0110d+2
$ double precision, parameter :: f169 = 1.1994d-5
$ double precision, parameter :: f170 = 1.3661d-8
$ double precision, parameter :: f171 = 1.0594d-5
$ double precision, parameter :: f172 = 1.3050d+1
$ double precision, parameter :: f173 = 5.1413d0
$ double precision, parameter :: f174 = 8.4344d0
$ double precision, parameter :: f175 = 3.0131d-7
$ double precision, parameter :: f176 = 1.4197d-1
$ double precision, parameter :: f177 = 7.3591d-5
$ double precision, parameter :: f178 = 4.9260d-8
$ double precision, parameter :: f179 = 1.7322d-4
$ double precision, parameter :: f180 = 5.5377d-7
$ double precision, parameter :: f181 = 4.3418d0
$ double precision, parameter :: f182 = 2.3035d-6
$ double precision, parameter :: f183 = 3.1383d-7
$ double precision, parameter :: f184 = 2.9553d-5
$ double precision, parameter :: f185 = 2.4150d-6
$ double precision, parameter :: f186 = 5.0600d-3
$ double precision, parameter :: f187 = 1.4497d-1
$ double precision, parameter :: f188 = 4.8074d-7
$ double precision, parameter :: f189 = 2.6556d-1
$ double precision, parameter :: f190 = 1.1713d+1
$ double precision, parameter :: f191 = 2.2213d-1
$ double precision, parameter :: f192 = 9.2448d+2
$ double precision, parameter :: f193 = 2.3016d-5
$ double precision, parameter :: f194 = 3.3683d-2
$ double precision, parameter :: f195 = 4.6956d-7
$ double precision, parameter :: f196 = 2.3560d-4
$ double precision, parameter :: f197 = 9.0219d-2
$ double precision, parameter :: f198 = 3.6838d-3
$ double precision, parameter :: f199 = 2.1615d-5
$ double precision, parameter :: f200 = 9.3959d-8
$ double precision, parameter :: f201 = 7.5330d-6
$ double precision, parameter :: f202 = 3.0090d0
$ double precision, parameter :: f203 = 2.0138d-8
$ double precision, parameter :: f204 = 4.6307d-5
$ double precision, parameter :: f205 = 8.8881d-1
$ double precision, parameter :: f206 = 1.2318d-8
$ double precision, parameter :: f207 = 2.4566d-2
$ double precision, parameter :: f208 = 1.3854d0
$ double precision, parameter :: f209 = 5.6833d-5
$ double precision, parameter :: f210 = 2.4127d+1
$ double precision, parameter :: f211 = 6.6645d-5
$ double precision, parameter :: f212 = 2.8367d-7
$ double precision, parameter :: f213 = 2.2988d+1
$ double precision, parameter :: f214 = 7.4364d-4
$ double precision, parameter :: f215 = 3.3671d-7
$ double precision, parameter :: f216 = 5.8345d-7
$ double precision, parameter :: f217 = 2.4172d-4
$ double precision, parameter :: f218 = 9.3374d-6
$ double precision, parameter :: f219 = 2.3560d-7
$ double precision, parameter :: f220 = 2.6867d-8
$ double precision, parameter :: f221 = 6.4186d-5
$ double precision, parameter :: f222 = 5.6658d-3
$ double precision, parameter :: f223 = 1.7599d-4
$ double precision, parameter :: f224 = 3.4152d-8
$ double precision, parameter :: f225 = 3.6644d+2
$ double precision, parameter :: f226 = 4.9840d-4
$ double precision, parameter :: f227 = 2.8333d-4
$ double precision, parameter :: f228 = 1.2176d0
$ double precision, parameter :: f229 = 9.6262d-1
$ double precision, parameter :: f230 = 7.1558d-3
$ double precision, parameter :: f231 = 1.1760d-8
$ double precision, parameter :: f232 = 1.4442d-1
$ double precision, parameter :: f233 = 1.0573d-6
$ double precision, parameter :: f234 = 2.3086d-4
$ double precision, parameter :: f235 = 4.3369d-8
$ double precision, parameter :: f236 = 1.6191d-3
$ double precision, parameter :: f237 = 2.0432d0
$ double precision, parameter :: f238 = 6.8932d+2
$ double precision, parameter :: f239 = 1.2525d-3
$ double precision, parameter :: f240 = 2.1489d-5
$ double precision, parameter :: f241 = 5.3643d-6
$ double precision, parameter :: f242 = 1.8173d+1
$ double precision, parameter :: f243 = 1.4624d-3
$ double precision, parameter :: f244 = 2.0275d+2
$ double precision, parameter :: f245 = 3.0519d+1
$ double precision, parameter :: f246 = 1.0123d0
$ double precision, parameter :: f247 = 7.0389d0
$ double precision, parameter :: f248 = 3.0480d+1
$ double precision, parameter :: f249 = 1.0084d-8
$ double precision, parameter :: f250 = 1.2076d+2
$ double precision, parameter :: f251 = 1.9657d-5
$ double precision, parameter :: f252 = 2.1300d-3
$ double precision, parameter :: f253 = 1.8247d-6
$ double precision, parameter :: f254 = 3.7942d+1
$ double precision, parameter :: f255 = 8.2053d-2
$ double precision, parameter :: f256 = 8.4204d-2
$ double precision, parameter :: f257 = 1.4724d0
$ double precision, parameter :: f258 = 3.7398d-6
$ double precision, parameter :: f259 = 4.8006d-6
$ double precision, parameter :: f260 = 5.1892d-5
$ double precision, parameter :: f261 = 1.2303d-7
$ double precision, parameter :: f262 = 2.3704d-1
$ double precision, parameter :: f263 = 7.0908d-5
$ double precision, parameter :: f264 = 2.7520d-5
$ double precision, parameter :: f265 = 5.9971d-4
$ double precision, parameter :: f266 = 1.2081d-7
$ double precision, parameter :: f267 = 3.2156d-6
$ double precision, parameter :: f268 = 2.1558d+2
$ double precision, parameter :: f269 = 1.3834d-7
$ double precision, parameter :: f270 = 2.1735d0
$ double precision, parameter :: f271 = 1.4094d-1
$ double precision, parameter :: f272 = 6.2980d+2
$ double precision, parameter :: f273 = 4.1502d-1
$ double precision, parameter :: f274 = 3.1606d-6
$ double precision, parameter :: f275 = 1.9689d-4
$ double precision, parameter :: f276 = 7.9178d0
$ double precision, parameter :: f277 = 7.4361d-7
$ double precision, parameter :: f278 = 7.6542d-6
$ double precision, parameter :: f279 = 1.2055d-5
$ double precision, parameter :: f280 = 7.5874d-3
$ double precision, parameter :: f281 = 1.4104d-3
$ double precision, parameter :: f282 = 1.1931d+2
$ double precision, parameter :: f283 = 2.1131d-2
$ double precision, parameter :: f284 = 1.6603d-1
$ double precision, parameter :: f285 = 1.0025d0
$ double precision, parameter :: f286 = 7.8417d-8
$ double precision, parameter :: f287 = 9.9006d0
$ double precision, parameter :: f288 = 1.8027d+1
$ double precision, parameter :: f289 = 1.1993d+2
$ double precision, parameter :: f290 = 1.2846d0
$ double precision, parameter :: f291 = 1.8286d-7
$ double precision, parameter :: f292 = 2.8693d+2
$ double precision, parameter :: f293 = 8.9272d-1
$ double precision, parameter :: f294 = 7.1413d0
$ double precision, parameter :: f295 = 1.8700d-4
$ double precision, parameter :: f296 = 2.6818d0
$ double precision, parameter :: f297 = 3.3292d-1
$ double precision, parameter :: f298 = 1.5949d+1
$ double precision, parameter :: f299 = 3.5064d+2
$ double precision, parameter :: f300 = 5.5167d+2
$ double precision, parameter :: f301 = 5.6350d-5
$ double precision, parameter :: f302 = 2.2464d-1
$ double precision, parameter :: f303 = 1.6085d+1
$ double precision, parameter :: f304 = 1.2237d+2
$ double precision, parameter :: f305 = 3.2285d+2
$ double precision, parameter :: f306 = 5.2608d-2
$ double precision, parameter :: f307 = 2.3926d-2
$ double precision, parameter :: f308 = 2.2401d-7
$ double precision, parameter :: f309 = 7.4858d-6
$ double precision, parameter :: f310 = 2.6110d+2
$ double precision, parameter :: f311 = 3.7315d+1
$ double precision, parameter :: f312 = 4.7690d-7
$ double precision, parameter :: f313 = 3.2883d+2
$ double precision, parameter :: f314 = 2.4807d+2
$ double precision, parameter :: f315 = 3.8814d0

# Electron Collision Reaction
e + CH4 => e + CH4(v24)		! f0 * Bolsig+ CH4 -> CH4(v24)
e + CH4 => e + CH4(v13)		! f1 * Bolsig+ CH4 -> CH4(v13)
e + C2H6 => e + C2H6(v24)		! f2 * Bolsig+ C2H6 -> C2H6(v24)
e + C2H6 => e + C2H6(v13)		! f3 * Bolsig+ C2H6 -> C2H6(v13)
e + C2H4 => e + C2H4(v1)		! f4 * Bolsig+ C2H4 -> C2H4(v1)
e + C2H4 => e + C2H4(v2)		! f5 * Bolsig+ C2H4 -> C2H4(v2)
e + C2H2 => e + C2H2(v5)		! f6 * Bolsig+ C2H2 -> C2H2(v5)
e + C2H2 => e + C2H2(v2)		! f7 * Bolsig+ C2H2 -> C2H2(v2)
e + C2H2 => e + C2H2(v13)		! f8 * Bolsig+ C2H2 -> C2H2(v13)
e + C3H8 => e + C3H8(v1)		! f9 * Bolsig+ C3H8 -> C3H8(v1)
e + C3H8 => e + C3H8(v2)		! f10 * Bolsig+ C3H8 -> C3H8(v2)
e + C3H6 => e + C3H6(v)		! f11 * Bolsig+ C3H6 -> C3H6(v)
e + CH4 => e + CH3 + H		! f12 * Bolsig+ CH4 -> CH3 H
e + CH4(v24) => e + CH3 + H		! f12 * Bolsig+ CH4(v24) -> CH3 H
e + CH4(v13) => e + CH3 + H		! f12 * Bolsig+ CH4(v13) -> CH3 H
e + CH4 => e + CH2 + H2		! f13 * Bolsig+ CH4 -> CH2 H2
e + CH4(v24) => e + CH2 + H2		! f13 * Bolsig+ CH4(v24) -> CH2 H2
e + CH4(v13) => e + CH2 + H2		! f13 * Bolsig+ CH4(v13) -> CH2 H2
e + CH4 => e + CH + H2 + H		! f14 * Bolsig+ CH4 -> CH H2 H
e + CH4(v24) => e + CH + H2 + H		! f14 * Bolsig+ CH4(v24) -> CH H2 H
e + CH4(v13) => e + CH + H2 + H		! f14 * Bolsig+ CH4(v13) -> CH H2 H
e + CH4 => e + C + H2 + H2		! f15 * Bolsig+ CH4 -> C H2 H2
e + CH4(v24) => e + C + H2 + H2		! f15 * Bolsig+ CH4(v24) -> C H2 H2
e + CH4(v13) => e + C + H2 + H2		! f15 * Bolsig+ CH4(v13) -> C H2 H2
e + CH3 => e + CH2 + H		! f16 * Bolsig+ CH3 -> CH2 H
e + CH3 => e + CH + H2		! f17 * Bolsig+ CH3 -> CH H2
e + CH3 => e + C + H2 + H		! f18 * Bolsig+ CH3 -> C H2 H
e + CH2 => e + CH + H		! f19 * Bolsig+ CH2 -> CH H
e + CH2 => e + C + H2		! f20 * Bolsig+ CH2 -> C H2
e + CH2 => e + C + H + H		! f21 * Bolsig+ CH2 -> C H H
e + CH => e + C + H		! f22 * Bolsig+ CH -> C H
e + CH4 => e + e + CH4^+		! f23 * Bolsig+ CH4 -> CH4^+
e + CH4(v24) => e + e + CH4^+		! f23 * Bolsig+ CH4(v24) -> CH4^+
e + CH4(v13) => e + e + CH4^+		! f23 * Bolsig+ CH4(v13) -> CH4^+
e + CH4 => e + e + H + CH3^+		! f24 * Bolsig+ CH4 -> H CH3^+
e + CH4(v24) => e + e + H + CH3^+		! f24 * Bolsig+ CH4(v24) -> H CH3^+
e + CH4(v13) => e + e + H + CH3^+		! f24 * Bolsig+ CH4(v13) -> H CH3^+
e + CH4 => e + e + H2 + CH2^+		! f25 * Bolsig+ CH4 -> H2 CH2^+
e + CH4(v24) => e + e + H2 + CH2^+		! f25 * Bolsig+ CH4(v24) -> H2 CH2^+
e + CH4(v13) => e + e + H2 + CH2^+		! f25 * Bolsig+ CH4(v13) -> H2 CH2^+
e + CH4 => e + e + H2 + H + CH^+		! f26 * Bolsig+ CH4 -> H2 H CH^+
e + CH4(v24) => e + e + H2 + H + CH^+		! f26 * Bolsig+ CH4(v24) -> H2 H CH^+
e + CH4(v13) => e + e + H2 + H + CH^+		! f26 * Bolsig+ CH4(v13) -> H2 H CH^+
e + CH3 => e + e + CH3^+		! f27 * Bolsig+ CH3 -> CH3^+
e + CH3 => e + e + H + CH2^+		! f28 * Bolsig+ CH3 -> H CH2^+
e + CH3 => e + e + H2 + CH^+		! f29 * Bolsig+ CH3 -> H2 CH^+
e + CH2 => e + e + CH2^+		! f30 * Bolsig+ CH2 -> CH2^+
e + CH2 => e + e + H + CH^+		! f31 * Bolsig+ CH2 -> H CH^+
e + CH => e + e + CH^+		! f32 * Bolsig+ CH -> CH^+
e + C2H6 => e + C2H5 + H		! f33 * Bolsig+ C2H6 -> C2H5 H
e + C2H6(v24) => e + C2H5 + H		! f33 * Bolsig+ C2H6(v24) -> C2H5 H
e + C2H6(v13) => e + C2H5 + H		! f33 * Bolsig+ C2H6(v13) -> C2H5 H
e + C2H6 => e + C2H4 + H2		! f34 * Bolsig+ C2H6 -> C2H4 H2
e + C2H6(v24) => e + C2H4 + H2		! f34 * Bolsig+ C2H6(v24) -> C2H4 H2
e + C2H6(v13) => e + C2H4 + H2		! f34 * Bolsig+ C2H6(v13) -> C2H4 H2
e + C2H6 => e + C2H3 + H2 + H		! f35 * Bolsig+ C2H6 -> C2H3 H2 H
e + C2H6(v24) => e + C2H3 + H2 + H		! f35 * Bolsig+ C2H6(v24) -> C2H3 H2 H
e + C2H6(v13) => e + C2H3 + H2 + H		! f35 * Bolsig+ C2H6(v13) -> C2H3 H2 H
e + C2H6 => e + C2H2 + H2 + H2		! f36 * Bolsig+ C2H6 -> C2H2 H2 H2
e + C2H6(v24) => e + C2H2 + H2 + H2		! f36 * Bolsig+ C2H6(v24) -> C2H2 H2 H2
e + C2H6(v13) => e + C2H2 + H2 + H2		! f36 * Bolsig+ C2H6(v13) -> C2H2 H2 H2
e + C2H6 => e + CH4 + CH2		! f37 * Bolsig+ C2H6 -> CH4 CH2
e + C2H6(v24) => e + CH4 + CH2		! f37 * Bolsig+ C2H6(v24) -> CH4 CH2
e + C2H6(v13) => e + CH4 + CH2		! f37 * Bolsig+ C2H6(v13) -> CH4 CH2
e + C2H6 => e + CH3 + CH3		! f38 * Bolsig+ C2H6 -> CH3 CH3
e + C2H6(v24) => e + CH3 + CH3		! f38 * Bolsig+ C2H6(v24) -> CH3 CH3
e + C2H6(v13) => e + CH3 + CH3		! f38 * Bolsig+ C2H6(v13) -> CH3 CH3
e + C2H5 => e + C2H4 + H		! f39 * Bolsig+ C2H5 -> C2H4 H
e + C2H5 => e + C2H3 + H2		! f40 * Bolsig+ C2H5 -> C2H3 H2
e + C2H5 => e + C2H3 + H + H		! f41 * Bolsig+ C2H5 -> C2H3 H H
e + C2H5 => e + C2H2 + H2 + H		! f42 * Bolsig+ C2H5 -> C2H2 H2 H
e + C2H5 => e + CH4 + CH		! f43 * Bolsig+ C2H5 -> CH4 CH
e + C2H5 => e + CH3 + CH2		! f44 * Bolsig+ C2H5 -> CH3 CH2
e + C2H4 => e + C2H3 + H		! f45 * Bolsig+ C2H4 -> C2H3 H
e + C2H4(v1) => e + C2H3 + H		! f45 * Bolsig+ C2H4(v1) -> C2H3 H
e + C2H4(v2) => e + C2H3 + H		! f45 * Bolsig+ C2H4(v2) -> C2H3 H
e + C2H4 => e + C2H2 + H2		! f46 * Bolsig+ C2H4 -> C2H2 H2
e + C2H4(v1) => e + C2H2 + H2		! f46 * Bolsig+ C2H4(v1) -> C2H2 H2
e + C2H4(v2) => e + C2H2 + H2		! f46 * Bolsig+ C2H4(v2) -> C2H2 H2
e + C2H4 => e + C2H2 + H + H		! f47 * Bolsig+ C2H4 -> C2H2 H H
e + C2H4(v1) => e + C2H2 + H + H		! f47 * Bolsig+ C2H4(v1) -> C2H2 H H
e + C2H4(v2) => e + C2H2 + H + H		! f47 * Bolsig+ C2H4(v2) -> C2H2 H H
e + C2H4 => e + CH3 + CH		! f48 * Bolsig+ C2H4 -> CH3 CH
e + C2H4(v1) => e + CH3 + CH		! f48 * Bolsig+ C2H4(v1) -> CH3 CH
e + C2H4(v2) => e + CH3 + CH		! f48 * Bolsig+ C2H4(v2) -> CH3 CH
e + C2H4 => e + CH2 + CH2		! f49 * Bolsig+ C2H4 -> CH2 CH2
e + C2H4(v1) => e + CH2 + CH2		! f49 * Bolsig+ C2H4(v1) -> CH2 CH2
e + C2H4(v2) => e + CH2 + CH2		! f49 * Bolsig+ C2H4(v2) -> CH2 CH2
e + C2H3 => e + C2H2 + H		! f50 * Bolsig+ C2H3 -> C2H2 H
e + C2H3 => e + CH2 + CH		! f51 * Bolsig+ C2H3 -> CH2 CH
e + C2H2 => e + CH + CH		! f52 * Bolsig+ C2H2 -> CH CH
e + C2H2(v5) => e + CH + CH		! f52 * Bolsig+ C2H2(v5) -> CH CH
e + C2H2(v2) => e + CH + CH		! f52 * Bolsig+ C2H2(v2) -> CH CH
e + C2H2(v13) => e + CH + CH		! f52 * Bolsig+ C2H2(v13) -> CH CH
e + C2H6 => e + e + C2H6^+		! f53 * Bolsig+ C2H6 -> C2H6^+
e + C2H6(v24) => e + e + C2H6^+		! f53 * Bolsig+ C2H6(v24) -> C2H6^+
e + C2H6(v13) => e + e + C2H6^+		! f53 * Bolsig+ C2H6(v13) -> C2H6^+
e + C2H6 => e + e + H + C2H5^+		! f54 * Bolsig+ C2H6 -> H C2H5^+
e + C2H6(v24) => e + e + H + C2H5^+		! f54 * Bolsig+ C2H6(v24) -> H C2H5^+
e + C2H6(v13) => e + e + H + C2H5^+		! f54 * Bolsig+ C2H6(v13) -> H C2H5^+
e + C2H6 => e + e + H2 + C2H4^+		! f55 * Bolsig+ C2H6 -> H2 C2H4^+
e + C2H6(v24) => e + e + H2 + C2H4^+		! f55 * Bolsig+ C2H6(v24) -> H2 C2H4^+
e + C2H6(v13) => e + e + H2 + C2H4^+		! f55 * Bolsig+ C2H6(v13) -> H2 C2H4^+
e + C2H6 => e + e + H2 + H + C2H3^+		! f56 * Bolsig+ C2H6 -> H2 H C2H3^+
e + C2H6(v24) => e + e + H2 + H + C2H3^+		! f56 * Bolsig+ C2H6(v24) -> H2 H C2H3^+
e + C2H6(v13) => e + e + H2 + H + C2H3^+		! f56 * Bolsig+ C2H6(v13) -> H2 H C2H3^+
e + C2H6 => e + e + H2 + H2 + C2H2^+		! f57 * Bolsig+ C2H6 -> H2 H2 C2H2^+
e + C2H6(v24) => e + e + H2 + H2 + C2H2^+		! f57 * Bolsig+ C2H6(v24) -> H2 H2 C2H2^+
e + C2H6(v13) => e + e + H2 + H2 + C2H2^+		! f57 * Bolsig+ C2H6(v13) -> H2 H2 C2H2^+
e + C2H6 => e + e + CH3 + CH3^+		! f58 * Bolsig+ C2H6 -> CH3 CH3^+
e + C2H6(v24) => e + e + CH3 + CH3^+		! f58 * Bolsig+ C2H6(v24) -> CH3 CH3^+
e + C2H6(v13) => e + e + CH3 + CH3^+		! f58 * Bolsig+ C2H6(v13) -> CH3 CH3^+
e + C2H6 => e + e + CH4 + CH2^+		! f59 * Bolsig+ C2H6 -> CH4 CH2^+
e + C2H6(v24) => e + e + CH4 + CH2^+		! f59 * Bolsig+ C2H6(v24) -> CH4 CH2^+
e + C2H6(v13) => e + e + CH4 + CH2^+		! f59 * Bolsig+ C2H6(v13) -> CH4 CH2^+
e + C2H5 => e + e + C2H5^+		! f60 * Bolsig+ C2H5 -> C2H5^+
e + C2H5 => e + e + H + C2H4^+		! f61 * Bolsig+ C2H5 -> H C2H4^+
e + C2H5 => e + e + H2 + C2H3^+		! f62 * Bolsig+ C2H5 -> H2 C2H3^+
e + C2H5 => e + e + H2 + H + C2H2^+		! f63 * Bolsig+ C2H5 -> H2 H C2H2^+
e + C2H5 => e + e + CH2 + CH3^+		! f64 * Bolsig+ C2H5 -> CH2 CH3^+
e + C2H5 => e + e + CH3 + CH2^+		! f65 * Bolsig+ C2H5 -> CH3 CH2^+
e + C2H5 => e + e + CH4 + CH^+		! f66 * Bolsig+ C2H5 -> CH4 CH^+
e + C2H4 => e + e + C2H4^+		! f67 * Bolsig+ C2H4 -> C2H4^+
e + C2H4(v1) => e + e + C2H4^+		! f67 * Bolsig+ C2H4(v1) -> C2H4^+
e + C2H4(v2) => e + e + C2H4^+		! f67 * Bolsig+ C2H4(v2) -> C2H4^+
e + C2H4 => e + e + H + C2H3^+		! f68 * Bolsig+ C2H4 -> H C2H3^+
e + C2H4(v1) => e + e + H + C2H3^+		! f68 * Bolsig+ C2H4(v1) -> H C2H3^+
e + C2H4(v2) => e + e + H + C2H3^+		! f68 * Bolsig+ C2H4(v2) -> H C2H3^+
e + C2H4 => e + e + CH + CH3^+		! f69 * Bolsig+ C2H4 -> CH CH3^+
e + C2H4(v1) => e + e + CH + CH3^+		! f69 * Bolsig+ C2H4(v1) -> CH CH3^+
e + C2H4(v2) => e + e + CH + CH3^+		! f69 * Bolsig+ C2H4(v2) -> CH CH3^+
e + C2H4 => e + e + CH2 + CH2^+		! f70 * Bolsig+ C2H4 -> CH2 CH2^+
e + C2H4(v1) => e + e + CH2 + CH2^+		! f70 * Bolsig+ C2H4(v1) -> CH2 CH2^+
e + C2H4(v2) => e + e + CH2 + CH2^+		! f70 * Bolsig+ C2H4(v2) -> CH2 CH2^+
e + C2H4 => e + e + CH3 + CH^+		! f71 * Bolsig+ C2H4 -> CH3 CH^+
e + C2H4(v1) => e + e + CH3 + CH^+		! f71 * Bolsig+ C2H4(v1) -> CH3 CH^+
e + C2H4(v2) => e + e + CH3 + CH^+		! f71 * Bolsig+ C2H4(v2) -> CH3 CH^+
e + C2H3 => e + e + C2H3^+		! f72 * Bolsig+ C2H3 -> C2H3^+
e + C2H3 => e + e + H + C2H2^+		! f73 * Bolsig+ C2H3 -> H C2H2^+
e + C2H3 => e + e + CH + CH2^+		! f74 * Bolsig+ C2H3 -> CH CH2^+
e + C2H3 => e + e + CH2 + CH^+		! f75 * Bolsig+ C2H3 -> CH2 CH^+
e + C2H3 => e + e + C2H2 + H^+		! f76 * Bolsig+ C2H3 -> C2H2 H^+
e + C2H2 => e + e + C2H2^+		! f77 * Bolsig+ C2H2 -> C2H2^+
e + C2H2(v5) => e + e + C2H2^+		! f77 * Bolsig+ C2H2(v5) -> C2H2^+
e + C2H2(v2) => e + e + C2H2^+		! f77 * Bolsig+ C2H2(v2) -> C2H2^+
e + C2H2(v13) => e + e + C2H2^+		! f77 * Bolsig+ C2H2(v13) -> C2H2^+
e + C2H2 => e + e + CH + CH^+		! f78 * Bolsig+ C2H2 -> CH CH^+
e + C2H2(v5) => e + e + CH + CH^+		! f78 * Bolsig+ C2H2(v5) -> CH CH^+
e + C2H2(v2) => e + e + CH + CH^+		! f78 * Bolsig+ C2H2(v2) -> CH CH^+
e + C2H2(v13) => e + e + CH + CH^+		! f78 * Bolsig+ C2H2(v13) -> CH CH^+
e + C3H8 => e + C3H7 + H		! f79 * Bolsig+ C3H8 -> C3H7 H
e + C3H8(v1) => e + C3H7 + H		! f79 * Bolsig+ C3H8(v1) -> C3H7 H
e + C3H8(v2) => e + C3H7 + H		! f79 * Bolsig+ C3H8(v2) -> C3H7 H
e + C3H8 => e + C3H6 + H2		! f80 * Bolsig+ C3H8 -> C3H6 H2
e + C3H8(v1) => e + C3H6 + H2		! f80 * Bolsig+ C3H8(v1) -> C3H6 H2
e + C3H8(v2) => e + C3H6 + H2		! f80 * Bolsig+ C3H8(v2) -> C3H6 H2
e + C3H7 => e + C3H6 + H		! f81 * Bolsig+ C3H7 -> C3H6 H
e + C3H8 => e + e + C3H8^+		! f82 * Bolsig+ C3H8 -> C3H8^+
e + C3H8(v1) => e + e + C3H8^+		! f82 * Bolsig+ C3H8(v1) -> C3H8^+
e + C3H8(v2) => e + e + C3H8^+		! f82 * Bolsig+ C3H8(v2) -> C3H8^+
e + C3H8 => e + e + H + C3H7^+		! f83 * Bolsig+ C3H8 -> H C3H7^+
e + C3H8(v1) => e + e + H + C3H7^+		! f83 * Bolsig+ C3H8(v1) -> H C3H7^+
e + C3H8(v2) => e + e + H + C3H7^+		! f83 * Bolsig+ C3H8(v2) -> H C3H7^+
e + C3H8 => e + e + H2 + C3H6^+		! f84 * Bolsig+ C3H8 -> H2 C3H6^+
e + C3H8(v1) => e + e + H2 + C3H6^+		! f84 * Bolsig+ C3H8(v1) -> H2 C3H6^+
e + C3H8(v2) => e + e + H2 + C3H6^+		! f84 * Bolsig+ C3H8(v2) -> H2 C3H6^+
e + C3H7 => e + e + C3H7^+		! f85 * Bolsig+ C3H7 -> C3H7^+
e + C3H7 => e + e + H + C3H6^+		! f86 * Bolsig+ C3H7 -> H C3H6^+
e + C3H6 => e + e + C3H6^+		! f87 * Bolsig+ C3H6 -> C3H6^+
e + C3H6(v) => e + e + C3H6^+		! f87 * Bolsig+ C3H6(v) -> C3H6^+
e + C3H6 => e + C2H2 + CH4		! f88 * Bolsig+ C3H6 -> C2H2 CH4
e + C3H6(v) => e + C2H2 + CH4		! f88 * Bolsig+ C3H6(v) -> C2H2 CH4
e + C3H6 => e + e + C2H2 + CH4^+		! f89 * Bolsig+ C3H6 -> C2H2 CH4^+
e + C3H6(v) => e + e + C2H2 + CH4^+		! f89 * Bolsig+ C3H6(v) -> C2H2 CH4^+

# Ion Recombination Reaction
e + e + CH^+ => e + CH		! f90 * 1.00d0
e + e + CH2^+ => e + CH2		! f91 * 1.00d0
e + e + CH3^+ => e + CH3		! f92 * 1.00d0
e + e + CH4^+ => e + CH4		! f93 * 1.00d0
e + e + C2H2^+ => e + C2H2		! f94 * 1.00d0
e + e + C2H3^+ => e + C2H3		! f95 * 1.00d0
e + e + C2H4^+ => e + C2H4		! f96 * 1.00d0
e + e + C2H5^+ => e + C2H5		! f97 * 1.00d0
e + e + C2H6^+ => e + C2H6		! f98 * 1.00d0
e + e + C3H6^+ => e + C3H6		! f99 * 1.00d0
e + e + C3H7^+ => e + C3H7		! f100 * 1.00d0
e + e + C3H8^+ => e + C3H8		! f101 * 1.00d0

# Gas Phase Reaction
e + CH4^+ => CH3 + H		! f102 * 1.18d-08 * (300./Tgas)**0.5
e + CH4^+ => CH2 + H + H		! f103 * 2.42d-08 * (300./Tgas)**0.5
e + CH4^+ => CH + H2 + H		! f104 * 1.41d-08 * (300./Tgas)**0.5
e + CH3^+ => CH2 + H		! f105 * 2.25d-08 * (300./Tgas)**0.5
e + CH3^+ => CH + H2		! f106 * 7.88d-09 * (300./Tgas)**0.5
e + CH3^+ => CH + H + H		! f107 * 9.00d-09 * (300./Tgas)**0.5
e + CH3^+ => C + H2 + H		! f108 * 1.69d-08 * (300./Tgas)**0.5
e + CH2^+ => CH + H		! f109 * 1.00d-08 * (300./Tgas)**0.5
e + CH2^+ => C + H2		! f110 * 4.82d-09 * (300./Tgas)**0.5
e + CH2^+ => C + H + H		! f111 * 2.53d-08 * (300./Tgas)**0.5
e + CH^+ => C + H		! f112 * 3.23d-08 * (300./Tgas)**0.42
e + C2H6^+ => C2H5 + H		! f113 * 2.19d-08 * (300./Tgas)**0.71
e + C2H6^+ => C2H4 + H + H		! f114 * 3.36d-08 * (300./Tgas)**0.71
e + C2H5^+ => C2H4 + H		! f115 * 7.70d-09 * (300./Tgas)**0.71
e + C2H5^+ => C2H3 + H + H		! f116 * 1.92d-08 * (300./Tgas)**0.71
e + C2H5^+ => C2H2 + H2 + H		! f117 * 1.60d-08 * (300./Tgas)**0.71
e + C2H5^+ => C2H2 + H + H + H		! f118 * 8.98d-09 * (300./Tgas)**0.71
e + C2H5^+ => CH3 + CH2		! f119 * 9.62d-09 * (300./Tgas)**0.71
e + C2H4^+ => C2H3 + H		! f120 * 8.29d-09 * (300./Tgas)**0.71
e + C2H4^+ => C2H2 + H + H		! f121 * 3.43d-08 * (300./Tgas)**0.71
e + C2H3^+ => C2H2 + H		! f122 * 1.34d-08 * (300./Tgas)**0.71
e + C2H2^+ => CH + CH		! f123 * 4.87d-09 * (300./Tgas)**0.71
e + H2^+ => H + H		! f124 * 3.17d21/(6.022d23 * Te**4.5)
e + H3^+ => H + H2		! f125 * 3.17d21/(6.022d23 * Te**4.5)
H2 + H2^+ => H + H3^+		! f126 * 2.11d-09
C2H6 + CH4^+ => CH4 + H2 + C2H4^+		! f127 * 1.91d-9
C2H6(v24) + CH4^+ => CH4 + H2 + C2H4^+		! f127 * 1.91d-9
C2H6(v13) + CH4^+ => CH4 + H2 + C2H4^+		! f127 * 1.91d-9
C2H4 + CH4^+ => CH3 + C2H5^+		! f128 * 4.23d-10