ELEMENTS
e C H
END

SPECIES
e C CH CH^+ CH2 CH2^+ CH3 CH3^+ CH4 CH4(v13) CH4(v24) CH4^+ C2H2 C2H2(v13) C2H2(v2) C2H2(v5) C2H2^+ C2H3 C2H3^+ C2H4 C2H4(v1) C2H4(v2) C2H4^+ C2H5 C2H5^+
C2H6 C2H6(v13) C2H6(v24) C2H6^+ C3H5 C3H6 C3H6(v) C3H6^+ C3H7 C3H7^+ C3H8 C3H8(v1) C3H8(v2) C3H8^+ C4H9 C4H9H C2H C5H12 H H2 H2^+ H3^+ H^+
END

BOLSIG
CH CH2 CH3 CH4 CH4(v13) CH4(v24) C2H2 C2H2(v13) C2H2(v2) C2H2(v5) C2H3 C2H4 C2H4(v1) C2H4(v2) C2H5 C2H6 C2H6(v13) C2H6(v24) C3H6 C3H6(v) C3H7 C3H8 C3H8(v1) C3H8(v2)
END

REACTIONS
# Gas Constant
$ double precision, parameter :: R = 8.314d-3

# Compensation Parameters
$ double precision, parameter :: f0 = 3.0652d-5
$ double precision, parameter :: f1 = 1.7018d-3
$ double precision, parameter :: f2 = 1.4298d-3
$ double precision, parameter :: f3 = 3.0907d-2
$ double precision, parameter :: f4 = 5.7313d-2
$ double precision, parameter :: f5 = 2.6808d-2
$ double precision, parameter :: f6 = 3.8478d-5
$ double precision, parameter :: f7 = 9.5332d0
$ double precision, parameter :: f8 = 3.1594d-2
$ double precision, parameter :: f9 = 1.2843d+2
$ double precision, parameter :: f10 = 6.4813d+2
$ double precision, parameter :: f11 = 2.9510d-6
$ double precision, parameter :: f12 = 2.3787d-1
$ double precision, parameter :: f13 = 2.3217d-2
$ double precision, parameter :: f14 = 9.6573d-5
$ double precision, parameter :: f15 = 9.3540d-6
$ double precision, parameter :: f16 = 3.4255d+1
$ double precision, parameter :: f17 = 1.4542d0
$ double precision, parameter :: f18 = 5.8211d+1
$ double precision, parameter :: f19 = 3.7322d-5
$ double precision, parameter :: f20 = 3.1384d-5
$ double precision, parameter :: f21 = 2.4298d-5
$ double precision, parameter :: f22 = 1.1620d-3
$ double precision, parameter :: f23 = 1.3802d-8
$ double precision, parameter :: f24 = 8.5938d-2
$ double precision, parameter :: f25 = 5.2813d-3
$ double precision, parameter :: f26 = 2.8318d-2
$ double precision, parameter :: f27 = 1.2099d-6
$ double precision, parameter :: f28 = 6.3592d+1
$ double precision, parameter :: f29 = 6.2386d-4
$ double precision, parameter :: f30 = 7.0112d-3
$ double precision, parameter :: f31 = 1.5302d+2
$ double precision, parameter :: f32 = 5.2448d-6
$ double precision, parameter :: f33 = 2.8188d+1
$ double precision, parameter :: f34 = 3.6260d-1
$ double precision, parameter :: f35 = 2.0914d-2
$ double precision, parameter :: f36 = 1.1487d-2
$ double precision, parameter :: f37 = 2.2244d-6
$ double precision, parameter :: f38 = 3.5302d-4
$ double precision, parameter :: f39 = 8.1748d-7
$ double precision, parameter :: f40 = 4.1548d-3
$ double precision, parameter :: f41 = 6.2641d+1
$ double precision, parameter :: f42 = 1.4845d-7
$ double precision, parameter :: f43 = 4.3546d-6
$ double precision, parameter :: f44 = 8.8585d-8
$ double precision, parameter :: f45 = 6.7642d+1
$ double precision, parameter :: f46 = 2.1406d-2
$ double precision, parameter :: f47 = 1.2781d-5
$ double precision, parameter :: f48 = 1.1871d-8
$ double precision, parameter :: f49 = 3.7075d+2
$ double precision, parameter :: f50 = 2.0968d-7
$ double precision, parameter :: f51 = 1.0468d-6
$ double precision, parameter :: f52 = 6.6762d-8
$ double precision, parameter :: f53 = 3.1815d-2
$ double precision, parameter :: f54 = 1.7265d-5
$ double precision, parameter :: f55 = 6.4925d-3
$ double precision, parameter :: f56 = 5.2569d-7
$ double precision, parameter :: f57 = 2.6136d-8
$ double precision, parameter :: f58 = 5.8219d-8
$ double precision, parameter :: f59 = 6.4002d-7
$ double precision, parameter :: f60 = 6.8257d-4
$ double precision, parameter :: f61 = 1.0129d-2
$ double precision, parameter :: f62 = 1.1778d-7
$ double precision, parameter :: f63 = 1.0227d-1
$ double precision, parameter :: f64 = 9.5789d-7
$ double precision, parameter :: f65 = 8.8072d-5
$ double precision, parameter :: f66 = 2.7717d-6
$ double precision, parameter :: f67 = 8.0704d0
$ double precision, parameter :: f68 = 3.3107d+1
$ double precision, parameter :: f69 = 4.7093d-8
$ double precision, parameter :: f70 = 1.8557d0
$ double precision, parameter :: f71 = 6.0672d-5
$ double precision, parameter :: f72 = 8.9539d-6
$ double precision, parameter :: f73 = 6.6917d-4
$ double precision, parameter :: f74 = 4.6596d-1
$ double precision, parameter :: f75 = 3.1820d-4
$ double precision, parameter :: f76 = 2.9930d-3
$ double precision, parameter :: f77 = 1.1149d-8
$ double precision, parameter :: f78 = 9.4134d-3
$ double precision, parameter :: f79 = 4.3865d-1
$ double precision, parameter :: f80 = 2.5965d-8
$ double precision, parameter :: f81 = 8.0737d-3
$ double precision, parameter :: f82 = 9.4771d-4
$ double precision, parameter :: f83 = 7.4243d-1
$ double precision, parameter :: f84 = 4.0818d-7
$ double precision, parameter :: f85 = 8.6287d-8
$ double precision, parameter :: f86 = 1.4881d-3
$ double precision, parameter :: f87 = 4.4750d-4
$ double precision, parameter :: f88 = 1.0910d+1
$ double precision, parameter :: f89 = 5.9907d+1
$ double precision, parameter :: f90 = 7.1921d-4
$ double precision, parameter :: f91 = 1.1081d0
$ double precision, parameter :: f92 = 1.5753d-4
$ double precision, parameter :: f93 = 1.5738d-3
$ double precision, parameter :: f94 = 5.0854d+1
$ double precision, parameter :: f95 = 6.2477d-8
$ double precision, parameter :: f96 = 5.6539d-3
$ double precision, parameter :: f97 = 6.5548d+1
$ double precision, parameter :: f98 = 6.2802d-3
$ double precision, parameter :: f99 = 3.1176d-6
$ double precision, parameter :: f100 = 2.7276d-8
$ double precision, parameter :: f101 = 1.0761d-6
$ double precision, parameter :: f102 = 1.3190d-8
$ double precision, parameter :: f103 = 1.0313d-1
$ double precision, parameter :: f104 = 2.3557d-6
$ double precision, parameter :: f105 = 1.3855d+1
$ double precision, parameter :: f106 = 1.5443d-2
$ double precision, parameter :: f107 = 3.6949d-8
$ double precision, parameter :: f108 = 2.7290d-2
$ double precision, parameter :: f109 = 3.6895d-6
$ double precision, parameter :: f110 = 8.9161d-5
$ double precision, parameter :: f111 = 2.4046d-3
$ double precision, parameter :: f112 = 7.7605d+1
$ double precision, parameter :: f113 = 1.0756d+2
$ double precision, parameter :: f114 = 2.5288d-8
$ double precision, parameter :: f115 = 1.3050d-5
$ double precision, parameter :: f116 = 3.2897d-8
$ double precision, parameter :: f117 = 2.1648d-1
$ double precision, parameter :: f118 = 6.6953d-3
$ double precision, parameter :: f119 = 3.1205d-7
$ double precision, parameter :: f120 = 7.8256d-7
$ double precision, parameter :: f121 = 1.1234d-3
$ double precision, parameter :: f122 = 1.7474d-1
$ double precision, parameter :: f123 = 2.6408d-4
$ double precision, parameter :: f124 = 9.5859d-7
$ double precision, parameter :: f125 = 2.5713d0
$ double precision, parameter :: f126 = 9.5344d0
$ double precision, parameter :: f127 = 4.8764d-3
$ double precision, parameter :: f128 = 2.1077d-1
$ double precision, parameter :: f129 = 7.4180d-3
$ double precision, parameter :: f130 = 1.3516d+2
$ double precision, parameter :: f131 = 2.5669d0
$ double precision, parameter :: f132 = 3.0246d-5
$ double precision, parameter :: f133 = 2.2245d-3
$ double precision, parameter :: f134 = 2.0604d0
$ double precision, parameter :: f135 = 1.3634d-7
$ double precision, parameter :: f136 = 1.6130d0
$ double precision, parameter :: f137 = 1.5470d+2
$ double precision, parameter :: f138 = 1.8780d+1
$ double precision, parameter :: f139 = 4.8197d-4
$ double precision, parameter :: f140 = 1.1813d-2
$ double precision, parameter :: f141 = 1.2012d-5
$ double precision, parameter :: f142 = 1.4867d-4
$ double precision, parameter :: f143 = 4.5656d-5
$ double precision, parameter :: f144 = 3.2688d-2
$ double precision, parameter :: f145 = 4.2491d-5
$ double precision, parameter :: f146 = 4.4459d-4
$ double precision, parameter :: f147 = 7.9296d-3
$ double precision, parameter :: f148 = 8.9639d-5
$ double precision, parameter :: f149 = 1.4449d-8
$ double precision, parameter :: f150 = 1.2391d-2
$ double precision, parameter :: f151 = 3.9117d-3
$ double precision, parameter :: f152 = 2.4634d-6
$ double precision, parameter :: f153 = 5.3753d-3
$ double precision, parameter :: f154 = 2.4716d0
$ double precision, parameter :: f155 = 5.3913d+1
$ double precision, parameter :: f156 = 7.4099d-2
$ double precision, parameter :: f157 = 3.1626d-7
$ double precision, parameter :: f158 = 3.4378d-6
$ double precision, parameter :: f159 = 3.6588d-2
$ double precision, parameter :: f160 = 4.2056d-7
$ double precision, parameter :: f161 = 5.7704d0
$ double precision, parameter :: f162 = 1.8354d+1
$ double precision, parameter :: f163 = 7.4079d+1
$ double precision, parameter :: f164 = 1.9959d-8
$ double precision, parameter :: f165 = 8.2583d+2
$ double precision, parameter :: f166 = 6.3878d+1
$ double precision, parameter :: f167 = 9.0181d-7
$ double precision, parameter :: f168 = 3.1862d-5
$ double precision, parameter :: f169 = 2.3730d+2
$ double precision, parameter :: f170 = 9.5324d+1
$ double precision, parameter :: f171 = 3.1862d0
$ double precision, parameter :: f172 = 8.6477d-4
$ double precision, parameter :: f173 = 1.8846d-3
$ double precision, parameter :: f174 = 7.3888d-7
$ double precision, parameter :: f175 = 6.0229d-6
$ double precision, parameter :: f176 = 5.8712d-8
$ double precision, parameter :: f177 = 1.7816d-7
$ double precision, parameter :: f178 = 2.8121d+1
$ double precision, parameter :: f179 = 1.9316d+1
$ double precision, parameter :: f180 = 1.9117d0
$ double precision, parameter :: f181 = 1.2005d-8
$ double precision, parameter :: f182 = 2.9393d-8
$ double precision, parameter :: f183 = 6.7301d-1
$ double precision, parameter :: f184 = 8.3921d-3
$ double precision, parameter :: f185 = 2.9599d-8
$ double precision, parameter :: f186 = 2.4545d-4
$ double precision, parameter :: f187 = 6.4655d0
$ double precision, parameter :: f188 = 4.2904d0
$ double precision, parameter :: f189 = 3.9114d-2
$ double precision, parameter :: f190 = 1.1812d-7
$ double precision, parameter :: f191 = 2.7900d-7
$ double precision, parameter :: f192 = 5.6773d0
$ double precision, parameter :: f193 = 1.5817d-8
$ double precision, parameter :: f194 = 8.3243d+2
$ double precision, parameter :: f195 = 1.5319d-1
$ double precision, parameter :: f196 = 2.7409d-8
$ double precision, parameter :: f197 = 2.3037d-8
$ double precision, parameter :: f198 = 4.1614d-4
$ double precision, parameter :: f199 = 1.4593d-4
$ double precision, parameter :: f200 = 1.0630d+1
$ double precision, parameter :: f201 = 2.1064d-6
$ double precision, parameter :: f202 = 1.0745d0
$ double precision, parameter :: f203 = 1.3777d+1
$ double precision, parameter :: f204 = 5.4305d0
$ double precision, parameter :: f205 = 1.6357d+2
$ double precision, parameter :: f206 = 5.9129d-7
$ double precision, parameter :: f207 = 1.5335d-4
$ double precision, parameter :: f208 = 4.3931d0
$ double precision, parameter :: f209 = 9.3508d-6
$ double precision, parameter :: f210 = 2.7585d+1
$ double precision, parameter :: f211 = 5.7665d-6
$ double precision, parameter :: f212 = 1.1254d+1
$ double precision, parameter :: f213 = 2.3498d-2
$ double precision, parameter :: f214 = 6.2867d-2
$ double precision, parameter :: f215 = 4.4210d-2
$ double precision, parameter :: f216 = 2.5424d-8
$ double precision, parameter :: f217 = 5.0063d-8
$ double precision, parameter :: f218 = 1.0570d-8
$ double precision, parameter :: f219 = 3.2287d-3
$ double precision, parameter :: f220 = 4.2078d-8
$ double precision, parameter :: f221 = 1.5651d+2
$ double precision, parameter :: f222 = 4.0743d-8
$ double precision, parameter :: f223 = 1.5632d-5
$ double precision, parameter :: f224 = 2.5294d+2
$ double precision, parameter :: f225 = 4.7195d-1
$ double precision, parameter :: f226 = 1.9524d-3
$ double precision, parameter :: f227 = 1.6293d+2
$ double precision, parameter :: f228 = 2.1623d-3
$ double precision, parameter :: f229 = 1.1467d+2
$ double precision, parameter :: f230 = 1.1691d-4
$ double precision, parameter :: f231 = 2.4446d-7
$ double precision, parameter :: f232 = 1.7578d-2
$ double precision, parameter :: f233 = 8.2708d-5
$ double precision, parameter :: f234 = 6.3038d-3
$ double precision, parameter :: f235 = 7.9783d-2
$ double precision, parameter :: f236 = 3.2349d-2
$ double precision, parameter :: f237 = 1.3439d-7
$ double precision, parameter :: f238 = 6.1960d+1
$ double precision, parameter :: f239 = 2.2432d-5
$ double precision, parameter :: f240 = 1.5020d-7
$ double precision, parameter :: f241 = 6.3041d+1
$ double precision, parameter :: f242 = 8.2475d-5
$ double precision, parameter :: f243 = 1.4058d+2
$ double precision, parameter :: f244 = 4.7799d-7
$ double precision, parameter :: f245 = 1.0836d-6
$ double precision, parameter :: f246 = 8.7092d+2
$ double precision, parameter :: f247 = 3.7985d-7
$ double precision, parameter :: f248 = 1.7885d+1
$ double precision, parameter :: f249 = 6.3443d-4
$ double precision, parameter :: f250 = 7.2572d-5
$ double precision, parameter :: f251 = 6.1386d-6
$ double precision, parameter :: f252 = 6.4601d+1
$ double precision, parameter :: f253 = 1.6050d0
$ double precision, parameter :: f254 = 3.4459d-1
$ double precision, parameter :: f255 = 4.8043d+1
$ double precision, parameter :: f256 = 1.3131d+1
$ double precision, parameter :: f257 = 1.1126d+1
$ double precision, parameter :: f258 = 3.0576d-4
$ double precision, parameter :: f259 = 1.0557d-8
$ double precision, parameter :: f260 = 1.3375d+1
$ double precision, parameter :: f261 = 1.9552d+2
$ double precision, parameter :: f262 = 2.1387d-8
$ double precision, parameter :: f263 = 7.4704d-7
$ double precision, parameter :: f264 = 3.3233d0
$ double precision, parameter :: f265 = 2.0730d+2
$ double precision, parameter :: f266 = 2.4196d0
$ double precision, parameter :: f267 = 2.8844d-6
$ double precision, parameter :: f268 = 1.7063d-4
$ double precision, parameter :: f269 = 6.5770d-8
$ double precision, parameter :: f270 = 9.5382d-1
$ double precision, parameter :: f271 = 1.4537d-7
$ double precision, parameter :: f272 = 1.6738d-3
$ double precision, parameter :: f273 = 2.5638d-6
$ double precision, parameter :: f274 = 9.7901d-7
$ double precision, parameter :: f275 = 4.4147d-4
$ double precision, parameter :: f276 = 1.4751d-7
$ double precision, parameter :: f277 = 1.1593d-1
$ double precision, parameter :: f278 = 4.3908d+2
$ double precision, parameter :: f279 = 4.4183d-5
$ double precision, parameter :: f280 = 9.6927d-7
$ double precision, parameter :: f281 = 2.0269d-6
$ double precision, parameter :: f282 = 2.9439d-7
$ double precision, parameter :: f283 = 3.2130d-8
$ double precision, parameter :: f284 = 4.9756d-6
$ double precision, parameter :: f285 = 8.7283d-7
$ double precision, parameter :: f286 = 1.2145d-6
$ double precision, parameter :: f287 = 3.9895d0
$ double precision, parameter :: f288 = 2.2441d+1
$ double precision, parameter :: f289 = 3.9198d0
$ double precision, parameter :: f290 = 1.1707d-8
$ double precision, parameter :: f291 = 2.3087d-2
$ double precision, parameter :: f292 = 3.5465d-6
$ double precision, parameter :: f293 = 7.3655d0
$ double precision, parameter :: f294 = 2.1864d-7
$ double precision, parameter :: f295 = 8.2895d-7
$ double precision, parameter :: f296 = 8.9513d0
$ double precision, parameter :: f297 = 4.0472d+1
$ double precision, parameter :: f298 = 3.1369d-1
$ double precision, parameter :: f299 = 9.5334d-8
$ double precision, parameter :: f300 = 2.6340d0
$ double precision, parameter :: f301 = 2.4556d-8
$ double precision, parameter :: f302 = 3.6759d-8
$ double precision, parameter :: f303 = 3.6947d-4
$ double precision, parameter :: f304 = 8.7840d-3
$ double precision, parameter :: f305 = 1.7705d-2
$ double precision, parameter :: f306 = 3.3806d+1
$ double precision, parameter :: f307 = 8.8409d-3
$ double precision, parameter :: f308 = 1.4317d-7
$ double precision, parameter :: f309 = 1.6561d-2
$ double precision, parameter :: f310 = 2.7229d+2
$ double precision, parameter :: f311 = 4.7148d-3
$ double precision, parameter :: f312 = 1.0267d-2
$ double precision, parameter :: f313 = 4.2077d-4
$ double precision, parameter :: f314 = 7.6873d-7
$ double precision, parameter :: f315 = 6.8009d-8

# Electron Collision Reaction
e + CH4 => e + CH4(v24)		! f0 * Bolsig+ CH4 -> CH4(v24)
e + CH4 => e + CH4(v13)		! f1 * Bolsig+ CH4 -> CH4(v13)
e + C2H6 => e + C2H6(v24)		! f2 * Bolsig+ C2H6 -> C2H6(v24)
e + C2H6 => e + C2H6(v13)		! f3 * Bolsig+ C2H6 -> C2H6(v13)
e + C2H4 => e + C2H4(v1)		! f4 * Bolsig+ C2H4 -> C2H4(v1)
e + C2H4 => e + C2H4(v2)		! f5 * Bolsig+ C2H4 -> C2H4(v2)
e + C2H2 => e + C2H2(v5)		! f6 * Bolsig+ C2H2 -> C2H2(v5)
e + C2H2 => e + C2H2(v2)		! f7 * Bolsig+ C2H2 -> C2H2(v2)
e + C2H2 => e + C2H2(v13)		! f8 * Bolsig+ C2H2 -> C2H2(v13)
e + C3H8 => e + C3H8(v1)		! f9 * Bolsig+ C3H8 -> C3H8(v1)
e + C3H8 => e + C3H8(v2)		! f10 * Bolsig+ C3H8 -> C3H8(v2)
e + C3H6 => e + C3H6(v)		! f11 * Bolsig+ C3H6 -> C3H6(v)
e + CH4 => e + CH3 + H		! f12 * Bolsig+ CH4 -> CH3 H
e + CH4(v24) => e + CH3 + H		! f12 * Bolsig+ CH4(v24) -> CH3 H
e + CH4(v13) => e + CH3 + H		! f12 * Bolsig+ CH4(v13) -> CH3 H
e + CH4 => e + CH2 + H2		! f13 * Bolsig+ CH4 -> CH2 H2
e + CH4(v24) => e + CH2 + H2		! f13 * Bolsig+ CH4(v24) -> CH2 H2
e + CH4(v13) => e + CH2 + H2		! f13 * Bolsig+ CH4(v13) -> CH2 H2
e + CH4 => e + CH + H2 + H		! f14 * Bolsig+ CH4 -> CH H2 H
e + CH4(v24) => e + CH + H2 + H		! f14 * Bolsig+ CH4(v24) -> CH H2 H
e + CH4(v13) => e + CH + H2 + H		! f14 * Bolsig+ CH4(v13) -> CH H2 H
e + CH4 => e + C + H2 + H2		! f15 * Bolsig+ CH4 -> C H2 H2
e + CH4(v24) => e + C + H2 + H2		! f15 * Bolsig+ CH4(v24) -> C H2 H2
e + CH4(v13) => e + C + H2 + H2		! f15 * Bolsig+ CH4(v13) -> C H2 H2
e + CH3 => e + CH2 + H		! f16 * Bolsig+ CH3 -> CH2 H
e + CH3 => e + CH + H2		! f17 * Bolsig+ CH3 -> CH H2
e + CH3 => e + C + H2 + H		! f18 * Bolsig+ CH3 -> C H2 H
e + CH2 => e + CH + H		! f19 * Bolsig+ CH2 -> CH H
e + CH2 => e + C + H2		! f20 * Bolsig+ CH2 -> C H2
e + CH2 => e + C + H + H		! f21 * Bolsig+ CH2 -> C H H
e + CH => e + C + H		! f22 * Bolsig+ CH -> C H
e + CH4 => e + e + CH4^+		! f23 * Bolsig+ CH4 -> CH4^+
e + CH4(v24) => e + e + CH4^+		! f23 * Bolsig+ CH4(v24) -> CH4^+
e + CH4(v13) => e + e + CH4^+		! f23 * Bolsig+ CH4(v13) -> CH4^+
e + CH4 => e + e + H + CH3^+		! f24 * Bolsig+ CH4 -> H CH3^+
e + CH4(v24) => e + e + H + CH3^+		! f24 * Bolsig+ CH4(v24) -> H CH3^+
e + CH4(v13) => e + e + H + CH3^+		! f24 * Bolsig+ CH4(v13) -> H CH3^+
e + CH4 => e + e + H2 + CH2^+		! f25 * Bolsig+ CH4 -> H2 CH2^+
e + CH4(v24) => e + e + H2 + CH2^+		! f25 * Bolsig+ CH4(v24) -> H2 CH2^+
e + CH4(v13) => e + e + H2 + CH2^+		! f25 * Bolsig+ CH4(v13) -> H2 CH2^+
e + CH4 => e + e + H2 + H + CH^+		! f26 * Bolsig+ CH4 -> H2 H CH^+
e + CH4(v24) => e + e + H2 + H + CH^+		! f26 * Bolsig+ CH4(v24) -> H2 H CH^+
e + CH4(v13) => e + e + H2 + H + CH^+		! f26 * Bolsig+ CH4(v13) -> H2 H CH^+
e + CH3 => e + e + CH3^+		! f27 * Bolsig+ CH3 -> CH3^+
e + CH3 => e + e + H + CH2^+		! f28 * Bolsig+ CH3 -> H CH2^+
e + CH3 => e + e + H2 + CH^+		! f29 * Bolsig+ CH3 -> H2 CH^+
e + CH2 => e + e + CH2^+		! f30 * Bolsig+ CH2 -> CH2^+
e + CH2 => e + e + H + CH^+		! f31 * Bolsig+ CH2 -> H CH^+
e + CH => e + e + CH^+		! f32 * Bolsig+ CH -> CH^+
e + C2H6 => e + C2H5 + H		! f33 * Bolsig+ C2H6 -> C2H5 H
e + C2H6(v24) => e + C2H5 + H		! f33 * Bolsig+ C2H6(v24) -> C2H5 H
e + C2H6(v13) => e + C2H5 + H		! f33 * Bolsig+ C2H6(v13) -> C2H5 H
e + C2H6 => e + C2H4 + H2		! f34 * Bolsig+ C2H6 -> C2H4 H2
e + C2H6(v24) => e + C2H4 + H2		! f34 * Bolsig+ C2H6(v24) -> C2H4 H2
e + C2H6(v13) => e + C2H4 + H2		! f34 * Bolsig+ C2H6(v13) -> C2H4 H2
e + C2H6 => e + C2H3 + H2 + H		! f35 * Bolsig+ C2H6 -> C2H3 H2 H
e + C2H6(v24) => e + C2H3 + H2 + H		! f35 * Bolsig+ C2H6(v24) -> C2H3 H2 H
e + C2H6(v13) => e + C2H3 + H2 + H		! f35 * Bolsig+ C2H6(v13) -> C2H3 H2 H
e + C2H6 => e + C2H2 + H2 + H2		! f36 * Bolsig+ C2H6 -> C2H2 H2 H2
e + C2H6(v24) => e + C2H2 + H2 + H2		! f36 * Bolsig+ C2H6(v24) -> C2H2 H2 H2
e + C2H6(v13) => e + C2H2 + H2 + H2		! f36 * Bolsig+ C2H6(v13) -> C2H2 H2 H2
e + C2H6 => e + CH4 + CH2		! f37 * Bolsig+ C2H6 -> CH4 CH2
e + C2H6(v24) => e + CH4 + CH2		! f37 * Bolsig+ C2H6(v24) -> CH4 CH2
e + C2H6(v13) => e + CH4 + CH2		! f37 * Bolsig+ C2H6(v13) -> CH4 CH2
e + C2H6 => e + CH3 + CH3		! f38 * Bolsig+ C2H6 -> CH3 CH3
e + C2H6(v24) => e + CH3 + CH3		! f38 * Bolsig+ C2H6(v24) -> CH3 CH3
e + C2H6(v13) => e + CH3 + CH3		! f38 * Bolsig+ C2H6(v13) -> CH3 CH3
e + C2H5 => e + C2H4 + H		! f39 * Bolsig+ C2H5 -> C2H4 H
e + C2H5 => e + C2H3 + H2		! f40 * Bolsig+ C2H5 -> C2H3 H2
e + C2H5 => e + C2H3 + H + H		! f41 * Bolsig+ C2H5 -> C2H3 H H
e + C2H5 => e + C2H2 + H2 + H		! f42 * Bolsig+ C2H5 -> C2H2 H2 H
e + C2H5 => e + CH4 + CH		! f43 * Bolsig+ C2H5 -> CH4 CH
e + C2H5 => e + CH3 + CH2		! f44 * Bolsig+ C2H5 -> CH3 CH2
e + C2H4 => e + C2H3 + H		! f45 * Bolsig+ C2H4 -> C2H3 H
e + C2H4(v1) => e + C2H3 + H		! f45 * Bolsig+ C2H4(v1) -> C2H3 H
e + C2H4(v2) => e + C2H3 + H		! f45 * Bolsig+ C2H4(v2) -> C2H3 H
e + C2H4 => e + C2H2 + H2		! f46 * Bolsig+ C2H4 -> C2H2 H2
e + C2H4(v1) => e + C2H2 + H2		! f46 * Bolsig+ C2H4(v1) -> C2H2 H2
e + C2H4(v2) => e + C2H2 + H2		! f46 * Bolsig+ C2H4(v2) -> C2H2 H2
e + C2H4 => e + C2H2 + H + H		! f47 * Bolsig+ C2H4 -> C2H2 H H
e + C2H4(v1) => e + C2H2 + H + H		! f47 * Bolsig+ C2H4(v1) -> C2H2 H H
e + C2H4(v2) => e + C2H2 + H + H		! f47 * Bolsig+ C2H4(v2) -> C2H2 H H
e + C2H4 => e + CH3 + CH		! f48 * Bolsig+ C2H4 -> CH3 CH
e + C2H4(v1) => e + CH3 + CH		! f48 * Bolsig+ C2H4(v1) -> CH3 CH
e + C2H4(v2) => e + CH3 + CH		! f48 * Bolsig+ C2H4(v2) -> CH3 CH
e + C2H4 => e + CH2 + CH2		! f49 * Bolsig+ C2H4 -> CH2 CH2
e + C2H4(v1) => e + CH2 + CH2		! f49 * Bolsig+ C2H4(v1) -> CH2 CH2
e + C2H4(v2) => e + CH2 + CH2		! f49 * Bolsig+ C2H4(v2) -> CH2 CH2
e + C2H3 => e + C2H2 + H		! f50 * Bolsig+ C2H3 -> C2H2 H
e + C2H3 => e + CH2 + CH		! f51 * Bolsig+ C2H3 -> CH2 CH
e + C2H2 => e + CH + CH		! f52 * Bolsig+ C2H2 -> CH CH
e + C2H2(v5) => e + CH + CH		! f52 * Bolsig+ C2H2(v5) -> CH CH
e + C2H2(v2) => e + CH + CH		! f52 * Bolsig+ C2H2(v2) -> CH CH
e + C2H2(v13) => e + CH + CH		! f52 * Bolsig+ C2H2(v13) -> CH CH
e + C2H6 => e + e + C2H6^+		! f53 * Bolsig+ C2H6 -> C2H6^+
e + C2H6(v24) => e + e + C2H6^+		! f53 * Bolsig+ C2H6(v24) -> C2H6^+
e + C2H6(v13) => e + e + C2H6^+		! f53 * Bolsig+ C2H6(v13) -> C2H6^+
e + C2H6 => e + e + H + C2H5^+		! f54 * Bolsig+ C2H6 -> H C2H5^+
e + C2H6(v24) => e + e + H + C2H5^+		! f54 * Bolsig+ C2H6(v24) -> H C2H5^+
e + C2H6(v13) => e + e + H + C2H5^+		! f54 * Bolsig+ C2H6(v13) -> H C2H5^+
e + C2H6 => e + e + H2 + C2H4^+		! f55 * Bolsig+ C2H6 -> H2 C2H4^+
e + C2H6(v24) => e + e + H2 + C2H4^+		! f55 * Bolsig+ C2H6(v24) -> H2 C2H4^+
e + C2H6(v13) => e + e + H2 + C2H4^+		! f55 * Bolsig+ C2H6(v13) -> H2 C2H4^+
e + C2H6 => e + e + H2 + H + C2H3^+		! f56 * Bolsig+ C2H6 -> H2 H C2H3^+
e + C2H6(v24) => e + e + H2 + H + C2H3^+		! f56 * Bolsig+ C2H6(v24) -> H2 H C2H3^+
e + C2H6(v13) => e + e + H2 + H + C2H3^+		! f56 * Bolsig+ C2H6(v13) -> H2 H C2H3^+
e + C2H6 => e + e + H2 + H2 + C2H2^+		! f57 * Bolsig+ C2H6 -> H2 H2 C2H2^+
e + C2H6(v24) => e + e + H2 + H2 + C2H2^+		! f57 * Bolsig+ C2H6(v24) -> H2 H2 C2H2^+
e + C2H6(v13) => e + e + H2 + H2 + C2H2^+		! f57 * Bolsig+ C2H6(v13) -> H2 H2 C2H2^+
e + C2H6 => e + e + CH3 + CH3^+		! f58 * Bolsig+ C2H6 -> CH3 CH3^+
e + C2H6(v24) => e + e + CH3 + CH3^+		! f58 * Bolsig+ C2H6(v24) -> CH3 CH3^+
e + C2H6(v13) => e + e + CH3 + CH3^+		! f58 * Bolsig+ C2H6(v13) -> CH3 CH3^+
e + C2H6 => e + e + CH4 + CH2^+		! f59 * Bolsig+ C2H6 -> CH4 CH2^+
e + C2H6(v24) => e + e + CH4 + CH2^+		! f59 * Bolsig+ C2H6(v24) -> CH4 CH2^+
e + C2H6(v13) => e + e + CH4 + CH2^+		! f59 * Bolsig+ C2H6(v13) -> CH4 CH2^+
e + C2H5 => e + e + C2H5^+		! f60 * Bolsig+ C2H5 -> C2H5^+
e + C2H5 => e + e + H + C2H4^+		! f61 * Bolsig+ C2H5 -> H C2H4^+
e + C2H5 => e + e + H2 + C2H3^+		! f62 * Bolsig+ C2H5 -> H2 C2H3^+
e + C2H5 => e + e + H2 + H + C2H2^+		! f63 * Bolsig+ C2H5 -> H2 H C2H2^+
e + C2H5 => e + e + CH2 + CH3^+		! f64 * Bolsig+ C2H5 -> CH2 CH3^+
e + C2H5 => e + e + CH3 + CH2^+		! f65 * Bolsig+ C2H5 -> CH3 CH2^+
e + C2H5 => e + e + CH4 + CH^+		! f66 * Bolsig+ C2H5 -> CH4 CH^+
e + C2H4 => e + e + C2H4^+		! f67 * Bolsig+ C2H4 -> C2H4^+
e + C2H4(v1) => e + e + C2H4^+		! f67 * Bolsig+ C2H4(v1) -> C2H4^+
e + C2H4(v2) => e + e + C2H4^+		! f67 * Bolsig+ C2H4(v2) -> C2H4^+
e + C2H4 => e + e + H + C2H3^+		! f68 * Bolsig+ C2H4 -> H C2H3^+
e + C2H4(v1) => e + e + H + C2H3^+		! f68 * Bolsig+ C2H4(v1) -> H C2H3^+
e + C2H4(v2) => e + e + H + C2H3^+		! f68 * Bolsig+ C2H4(v2) -> H C2H3^+
e + C2H4 => e + e + CH + CH3^+		! f69 * Bolsig+ C2H4 -> CH CH3^+
e + C2H4(v1) => e + e + CH + CH3^+		! f69 * Bolsig+ C2H4(v1) -> CH CH3^+
e + C2H4(v2) => e + e + CH + CH3^+		! f69 * Bolsig+ C2H4(v2) -> CH CH3^+
e + C2H4 => e + e + CH2 + CH2^+		! f70 * Bolsig+ C2H4 -> CH2 CH2^+
e + C2H4(v1) => e + e + CH2 + CH2^+		! f70 * Bolsig+ C2H4(v1) -> CH2 CH2^+
e + C2H4(v2) => e + e + CH2 + CH2^+		! f70 * Bolsig+ C2H4(v2) -> CH2 CH2^+
e + C2H4 => e + e + CH3 + CH^+		! f71 * Bolsig+ C2H4 -> CH3 CH^+
e + C2H4(v1) => e + e + CH3 + CH^+		! f71 * Bolsig+ C2H4(v1) -> CH3 CH^+
e + C2H4(v2) => e + e + CH3 + CH^+		! f71 * Bolsig+ C2H4(v2) -> CH3 CH^+
e + C2H3 => e + e + C2H3^+		! f72 * Bolsig+ C2H3 -> C2H3^+
e + C2H3 => e + e + H + C2H2^+		! f73 * Bolsig+ C2H3 -> H C2H2^+
e + C2H3 => e + e + CH + CH2^+		! f74 * Bolsig+ C2H3 -> CH CH2^+
e + C2H3 => e + e + CH2 + CH^+		! f75 * Bolsig+ C2H3 -> CH2 CH^+
e + C2H3 => e + e + C2H2 + H^+		! f76 * Bolsig+ C2H3 -> C2H2 H^+
e + C2H2 => e + e + C2H2^+		! f77 * Bolsig+ C2H2 -> C2H2^+
e + C2H2(v5) => e + e + C2H2^+		! f77 * Bolsig+ C2H2(v5) -> C2H2^+
e + C2H2(v2) => e + e + C2H2^+		! f77 * Bolsig+ C2H2(v2) -> C2H2^+
e + C2H2(v13) => e + e + C2H2^+		! f77 * Bolsig+ C2H2(v13) -> C2H2^+
e + C2H2 => e + e + CH + CH^+		! f78 * Bolsig+ C2H2 -> CH CH^+
e + C2H2(v5) => e + e + CH + CH^+		! f78 * Bolsig+ C2H2(v5) -> CH CH^+
e + C2H2(v2) => e + e + CH + CH^+		! f78 * Bolsig+ C2H2(v2) -> CH CH^+
e + C2H2(v13) => e + e + CH + CH^+		! f78 * Bolsig+ C2H2(v13) -> CH CH^+
e + C3H8 => e + C3H7 + H		! f79 * Bolsig+ C3H8 -> C3H7 H
e + C3H8(v1) => e + C3H7 + H		! f79 * Bolsig+ C3H8(v1) -> C3H7 H
e + C3H8(v2) => e + C3H7 + H		! f79 * Bolsig+ C3H8(v2) -> C3H7 H
e + C3H8 => e + C3H6 + H2		! f80 * Bolsig+ C3H8 -> C3H6 H2
e + C3H8(v1) => e + C3H6 + H2		! f80 * Bolsig+ C3H8(v1) -> C3H6 H2
e + C3H8(v2) => e + C3H6 + H2		! f80 * Bolsig+ C3H8(v2) -> C3H6 H2
e + C3H7 => e + C3H6 + H		! f81 * Bolsig+ C3H7 -> C3H6 H
e + C3H8 => e + e + C3H8^+		! f82 * Bolsig+ C3H8 -> C3H8^+
e + C3H8(v1) => e + e + C3H8^+		! f82 * Bolsig+ C3H8(v1) -> C3H8^+
e + C3H8(v2) => e + e + C3H8^+		! f82 * Bolsig+ C3H8(v2) -> C3H8^+
e + C3H8 => e + e + H + C3H7^+		! f83 * Bolsig+ C3H8 -> H C3H7^+
e + C3H8(v1) => e + e + H + C3H7^+		! f83 * Bolsig+ C3H8(v1) -> H C3H7^+
e + C3H8(v2) => e + e + H + C3H7^+		! f83 * Bolsig+ C3H8(v2) -> H C3H7^+
e + C3H8 => e + e + H2 + C3H6^+		! f84 * Bolsig+ C3H8 -> H2 C3H6^+
e + C3H8(v1) => e + e + H2 + C3H6^+		! f84 * Bolsig+ C3H8(v1) -> H2 C3H6^+
e + C3H8(v2) => e + e + H2 + C3H6^+		! f84 * Bolsig+ C3H8(v2) -> H2 C3H6^+
e + C3H7 => e + e + C3H7^+		! f85 * Bolsig+ C3H7 -> C3H7^+
e + C3H7 => e + e + H + C3H6^+		! f86 * Bolsig+ C3H7 -> H C3H6^+
e + C3H6 => e + e + C3H6^+		! f87 * Bolsig+ C3H6 -> C3H6^+
e + C3H6(v) => e + e + C3H6^+		! f87 * Bolsig+ C3H6(v) -> C3H6^+
e + C3H6 => e + C2H2 + CH4		! f88 * Bolsig+ C3H6 -> C2H2 CH4
e + C3H6(v) => e + C2H2 + CH4		! f88 * Bolsig+ C3H6(v) -> C2H2 CH4
e + C3H6 => e + e + C2H2 + CH4^+		! f89 * Bolsig+ C3H6 -> C2H2 CH4^+
e + C3H6(v) => e + e + C2H2 + CH4^+		! f89 * Bolsig+ C3H6(v) -> C2H2 CH4^+

# Ion Recombination Reaction
e + e + CH^+ => e + CH		! f90 * 1.00d0
e + e + CH2^+ => e + CH2		! f91 * 1.00d0
e + e + CH3^+ => e + CH3		! f92 * 1.00d0
e + e + CH4^+ => e + CH4		! f93 * 1.00d0
e + e + C2H2^+ => e + C2H2		! f94 * 1.00d0
e + e + C2H3^+ => e + C2H3		! f95 * 1.00d0
e + e + C2H4^+ => e + C2H4		! f96 * 1.00d0
e + e + C2H5^+ => e + C2H5		! f97 * 1.00d0
e + e + C2H6^+ => e + C2H6		! f98 * 1.00d0
e + e + C3H6^+ => e + C3H6		! f99 * 1.00d0
e + e + C3H7^+ => e + C3H7		! f100 * 1.00d0
e + e + C3H8^+ => e + C3H8		! f101 * 1.00d0

# Gas Phase Reaction
e + CH4^+ => CH3 + H		! f102 * 1.18d-08 * (300./Tgas)**0.5
e + CH4^+ => CH2 + H + H		! f103 * 2.42d-08 * (300./Tgas)**0.5
e + CH4^+ => CH + H2 + H		! f104 * 1.41d-08 * (300./Tgas)**0.5
e + CH3^+ => CH2 + H		! f105 * 2.25d-08 * (300./Tgas)**0.5
e + CH3^+ => CH + H2		! f106 * 7.88d-09 * (300./Tgas)**0.5
e + CH3^+ => CH + H + H		! f107 * 9.00d-09 * (300./Tgas)**0.5
e + CH3^+ => C + H2 + H		! f108 * 1.69d-08 * (300./Tgas)**0.5
e + CH2^+ => CH + H		! f109 * 1.00d-08 * (300./Tgas)**0.5
e + CH2^+ => C + H2		! f110 * 4.82d-09 * (300./Tgas)**0.5
e + CH2^+ => C + H + H		! f111 * 2.53d-08 * (300./Tgas)**0.5
e + CH^+ => C + H		! f112 * 3.23d-08 * (300./Tgas)**0.42
e + C2H6^+ => C2H5 + H		! f113 * 2.19d-08 * (300./Tgas)**0.71
e + C2H6^+ => C2H4 + H + H		! f114 * 3.36d-08 * (300./Tgas)**0.71
e + C2H5^+ => C2H4 + H		! f115 * 7.70d-09 * (300./Tgas)**0.71
e + C2H5^+ => C2H3 + H + H		! f116 * 1.92d-08 * (300./Tgas)**0.71
e + C2H5^+ => C2H2 + H2 + H		! f117 * 1.60d-08 * (300./Tgas)**0.71
e + C2H5^+ => C2H2 + H + H + H		! f118 * 8.98d-09 * (300./Tgas)**0.71
e + C2H5^+ => CH3 + CH2		! f119 * 9.62d-09 * (300./Tgas)**0.71
e + C2H4^+ => C2H3 + H		! f120 * 8.29d-09 * (300./Tgas)**0.71
e + C2H4^+ => C2H2 + H + H		! f121 * 3.43d-08 * (300./Tgas)**0.71
e + C2H3^+ => C2H2 + H		! f122 * 1.34d-08 * (300./Tgas)**0.71
e + C2H2^+ => CH + CH		! f123 * 4.87d-09 * (300./Tgas)**0.71
e + H2^+ => H + H		! f124 * 3.17d21/(6.022d23 * Te**4.5)
e + H3^+ => H + H2		! f125 * 3.17d21/(6.022d23 * Te**4.5)
H2 + H2^+ => H + H3^+		! f126 * 2.11d-09
C2H6 + CH4^+ => CH4 + H2 + C2H4^+		! f127 * 1.91d-9
C2H6(v24) + CH4^+ => CH4 + H2 + C2H4^+		! f127 * 1.91d-9
C2H6(v13) + CH4^+ => CH4 + H2 + C2H4^+		! f127 * 1.91d-9
C2H4 + CH4^+ => CH3 + C2H5^+		! f128 * 4.23d-10