ELEMENTS
e C H
END

SPECIES
e C CH CH^+ CH2 CH2^+ CH3 CH3^+ CH4 CH4(v13) CH4(v24) CH4^+ C2H2 C2H2(v13) C2H2(v2) C2H2(v5) C2H2^+ C2H3 C2H3^+ C2H4 C2H4(v1) C2H4(v2) C2H4^+ C2H5 C2H5^+
C2H6 C2H6(v13) C2H6(v24) C2H6^+ C3H5 C3H6 C3H6(v) C3H6^+ C3H7 C3H7^+ C3H8 C3H8(v1) C3H8(v2) C3H8^+ C4H9 C4H9H C2H C5H12 H H2 H2^+ H3^+ H^+
END

BOLSIG
CH CH2 CH3 CH4 CH4(v13) CH4(v24) C2H2 C2H2(v13) C2H2(v2) C2H2(v5) C2H3 C2H4 C2H4(v1) C2H4(v2) C2H5 C2H6 C2H6(v13) C2H6(v24) C3H6 C3H6(v) C3H7 C3H8 C3H8(v1) C3H8(v2)
END

REACTIONS
# Gas Constant
$ double precision, parameter :: R = 8.314d-3

# Compensation Parameters
$ double precision, parameter :: f0 = 2.2002d-5
$ double precision, parameter :: f1 = 4.6055d-2
$ double precision, parameter :: f2 = 1.9921d+2
$ double precision, parameter :: f3 = 2.4077d-6
$ double precision, parameter :: f4 = 1.0726d+2
$ double precision, parameter :: f5 = 2.4232d-7
$ double precision, parameter :: f6 = 1.1816d-3
$ double precision, parameter :: f7 = 1.2401d-4
$ double precision, parameter :: f8 = 5.4505d-5
$ double precision, parameter :: f9 = 1.3286d-7
$ double precision, parameter :: f10 = 7.7266d-1
$ double precision, parameter :: f11 = 7.0439d-3
$ double precision, parameter :: f12 = 3.7010d+2
$ double precision, parameter :: f13 = 7.4334d-8
$ double precision, parameter :: f14 = 1.2930d-2
$ double precision, parameter :: f15 = 4.4844d-7
$ double precision, parameter :: f16 = 4.6851d-6
$ double precision, parameter :: f17 = 4.5220d-5
$ double precision, parameter :: f18 = 7.7233d-7
$ double precision, parameter :: f19 = 1.4664d-7
$ double precision, parameter :: f20 = 1.0996d+2
$ double precision, parameter :: f21 = 2.0532d-3
$ double precision, parameter :: f22 = 1.5138d-3
$ double precision, parameter :: f23 = 1.0836d+2
$ double precision, parameter :: f24 = 4.9056d-3
$ double precision, parameter :: f25 = 3.5096d+1
$ double precision, parameter :: f26 = 1.3871d-6
$ double precision, parameter :: f27 = 4.4183d-6
$ double precision, parameter :: f28 = 8.9324d-3
$ double precision, parameter :: f29 = 6.0190d-3
$ double precision, parameter :: f30 = 6.1764d-8
$ double precision, parameter :: f31 = 3.2943d+1
$ double precision, parameter :: f32 = 1.3021d-7
$ double precision, parameter :: f33 = 2.2905d+1
$ double precision, parameter :: f34 = 1.0669d-2
$ double precision, parameter :: f35 = 1.5038d-4
$ double precision, parameter :: f36 = 3.2068d-4
$ double precision, parameter :: f37 = 1.1274d-8
$ double precision, parameter :: f38 = 2.0417d-4
$ double precision, parameter :: f39 = 1.0650d0
$ double precision, parameter :: f40 = 1.3579d-7
$ double precision, parameter :: f41 = 3.1987d+1
$ double precision, parameter :: f42 = 6.5955d-5
$ double precision, parameter :: f43 = 7.6474d+1
$ double precision, parameter :: f44 = 3.9291d-6
$ double precision, parameter :: f45 = 3.9015d+2
$ double precision, parameter :: f46 = 9.5013d0
$ double precision, parameter :: f47 = 1.0374d-8
$ double precision, parameter :: f48 = 7.4544d-5
$ double precision, parameter :: f49 = 2.1141d-5
$ double precision, parameter :: f50 = 8.6265d-3
$ double precision, parameter :: f51 = 3.8989d-7
$ double precision, parameter :: f52 = 5.6119d-6
$ double precision, parameter :: f53 = 3.1719d-4
$ double precision, parameter :: f54 = 8.2390d-5
$ double precision, parameter :: f55 = 4.1661d-1
$ double precision, parameter :: f56 = 1.0451d+2
$ double precision, parameter :: f57 = 1.0157d-1
$ double precision, parameter :: f58 = 2.3020d+2
$ double precision, parameter :: f59 = 1.6197d+1
$ double precision, parameter :: f60 = 4.0870d-4
$ double precision, parameter :: f61 = 1.3620d-1
$ double precision, parameter :: f62 = 2.8601d-4
$ double precision, parameter :: f63 = 1.6200d0
$ double precision, parameter :: f64 = 1.1007d-8
$ double precision, parameter :: f65 = 5.5670d-3
$ double precision, parameter :: f66 = 5.8188d-1
$ double precision, parameter :: f67 = 3.6176d-5
$ double precision, parameter :: f68 = 3.6492d+1
$ double precision, parameter :: f69 = 3.2975d+1
$ double precision, parameter :: f70 = 1.2896d+2
$ double precision, parameter :: f71 = 1.9088d0
$ double precision, parameter :: f72 = 2.9155d-8
$ double precision, parameter :: f73 = 4.4365d+1
$ double precision, parameter :: f74 = 1.4119d-2
$ double precision, parameter :: f75 = 1.2426d-6
$ double precision, parameter :: f76 = 2.8076d+2
$ double precision, parameter :: f77 = 1.4180d-2
$ double precision, parameter :: f78 = 2.7214d-2
$ double precision, parameter :: f79 = 4.4406d+2
$ double precision, parameter :: f80 = 1.5301d-3
$ double precision, parameter :: f81 = 3.5890d-6
$ double precision, parameter :: f82 = 5.0828d-3
$ double precision, parameter :: f83 = 1.5141d-8
$ double precision, parameter :: f84 = 1.3125d0
$ double precision, parameter :: f85 = 1.8936d-6
$ double precision, parameter :: f86 = 1.0981d+1
$ double precision, parameter :: f87 = 7.7613d-7
$ double precision, parameter :: f88 = 2.9029d-3
$ double precision, parameter :: f89 = 1.0350d+2
$ double precision, parameter :: f90 = 6.8711d-3
$ double precision, parameter :: f91 = 1.0544d-2
$ double precision, parameter :: f92 = 5.8490d-8
$ double precision, parameter :: f93 = 2.2341d-5
$ double precision, parameter :: f94 = 3.2558d-2
$ double precision, parameter :: f95 = 3.7432d-3
$ double precision, parameter :: f96 = 1.3467d-2
$ double precision, parameter :: f97 = 8.1080d-4
$ double precision, parameter :: f98 = 1.5112d-6
$ double precision, parameter :: f99 = 1.6708d+1
$ double precision, parameter :: f100 = 1.3245d-1
$ double precision, parameter :: f101 = 4.7138d-1
$ double precision, parameter :: f102 = 1.2285d+2
$ double precision, parameter :: f103 = 2.5796d-7
$ double precision, parameter :: f104 = 3.2704d-1
$ double precision, parameter :: f105 = 8.9425d+2
$ double precision, parameter :: f106 = 5.8097d-4
$ double precision, parameter :: f107 = 7.2131d-4
$ double precision, parameter :: f108 = 4.7118d-8
$ double precision, parameter :: f109 = 1.7594d+1
$ double precision, parameter :: f110 = 1.4856d-2
$ double precision, parameter :: f111 = 7.6630d+2
$ double precision, parameter :: f112 = 4.4750d-4
$ double precision, parameter :: f113 = 8.8127d-4
$ double precision, parameter :: f114 = 4.0438d-5
$ double precision, parameter :: f115 = 1.0686d-3
$ double precision, parameter :: f116 = 7.4610d+1
$ double precision, parameter :: f117 = 2.2594d-7
$ double precision, parameter :: f118 = 8.7302d-8
$ double precision, parameter :: f119 = 7.1916d-2
$ double precision, parameter :: f120 = 3.9609d-7
$ double precision, parameter :: f121 = 1.3580d-6
$ double precision, parameter :: f122 = 7.5887d-5
$ double precision, parameter :: f123 = 1.8985d-4
$ double precision, parameter :: f124 = 1.0465d-2
$ double precision, parameter :: f125 = 1.4890d-1
$ double precision, parameter :: f126 = 5.9841d+1
$ double precision, parameter :: f127 = 1.2667d-5
$ double precision, parameter :: f128 = 3.4066d-8
$ double precision, parameter :: f129 = 2.4495d-1
$ double precision, parameter :: f130 = 3.4224d-6
$ double precision, parameter :: f131 = 9.8652d-8
$ double precision, parameter :: f132 = 6.7262d-1
$ double precision, parameter :: f133 = 1.4007d+1
$ double precision, parameter :: f134 = 1.7742d-4
$ double precision, parameter :: f135 = 3.6044d-6
$ double precision, parameter :: f136 = 1.1053d+2
$ double precision, parameter :: f137 = 6.7062d-8
$ double precision, parameter :: f138 = 6.4791d-4
$ double precision, parameter :: f139 = 4.2400d-2
$ double precision, parameter :: f140 = 1.2811d-4
$ double precision, parameter :: f141 = 1.8605d-8
$ double precision, parameter :: f142 = 2.6496d+2
$ double precision, parameter :: f143 = 9.4675d-4
$ double precision, parameter :: f144 = 6.7504d+2
$ double precision, parameter :: f145 = 9.1665d-7
$ double precision, parameter :: f146 = 4.1359d-4
$ double precision, parameter :: f147 = 6.3877d-6
$ double precision, parameter :: f148 = 1.1570d-2
$ double precision, parameter :: f149 = 7.0024d0
$ double precision, parameter :: f150 = 2.1990d-2
$ double precision, parameter :: f151 = 1.3120d-7
$ double precision, parameter :: f152 = 1.2917d+1
$ double precision, parameter :: f153 = 9.6356d-6
$ double precision, parameter :: f154 = 3.6932d-7
$ double precision, parameter :: f155 = 5.8110d0
$ double precision, parameter :: f156 = 4.8739d-2
$ double precision, parameter :: f157 = 9.4347d-8
$ double precision, parameter :: f158 = 4.9723d-4
$ double precision, parameter :: f159 = 1.4004d-1
$ double precision, parameter :: f160 = 3.9181d+1
$ double precision, parameter :: f161 = 2.9756d-5
$ double precision, parameter :: f162 = 2.4104d-5
$ double precision, parameter :: f163 = 4.6308d-5
$ double precision, parameter :: f164 = 4.2974d0
$ double precision, parameter :: f165 = 4.3067d-2
$ double precision, parameter :: f166 = 2.0260d+1
$ double precision, parameter :: f167 = 1.7620d+2
$ double precision, parameter :: f168 = 1.0880d-7
$ double precision, parameter :: f169 = 3.0813d-8
$ double precision, parameter :: f170 = 1.1290d-3
$ double precision, parameter :: f171 = 5.6130d-4
$ double precision, parameter :: f172 = 2.3507d-5
$ double precision, parameter :: f173 = 5.7442d-6
$ double precision, parameter :: f174 = 6.4376d-4
$ double precision, parameter :: f175 = 2.3054d0
$ double precision, parameter :: f176 = 3.2443d-2
$ double precision, parameter :: f177 = 5.3916d-5
$ double precision, parameter :: f178 = 2.5917d-7
$ double precision, parameter :: f179 = 1.9393d+2
$ double precision, parameter :: f180 = 9.6980d-1
$ double precision, parameter :: f181 = 9.0188d0
$ double precision, parameter :: f182 = 5.9972d-2
$ double precision, parameter :: f183 = 2.8380d-1
$ double precision, parameter :: f184 = 2.0598d-3
$ double precision, parameter :: f185 = 5.3717d+2
$ double precision, parameter :: f186 = 2.7752d-4
$ double precision, parameter :: f187 = 6.0937d+1
$ double precision, parameter :: f188 = 2.8293d0
$ double precision, parameter :: f189 = 2.8477d-3
$ double precision, parameter :: f190 = 4.5664d+1
$ double precision, parameter :: f191 = 2.5521d-8
$ double precision, parameter :: f192 = 2.6379d-6
$ double precision, parameter :: f193 = 1.2934d-8
$ double precision, parameter :: f194 = 1.3702d-1
$ double precision, parameter :: f195 = 1.0412d-5
$ double precision, parameter :: f196 = 2.7486d-3
$ double precision, parameter :: f197 = 4.2240d+1
$ double precision, parameter :: f198 = 6.1579d-1
$ double precision, parameter :: f199 = 3.9127d+1
$ double precision, parameter :: f200 = 1.8628d0
$ double precision, parameter :: f201 = 4.7024d-1
$ double precision, parameter :: f202 = 3.0173d-7
$ double precision, parameter :: f203 = 7.4282d-3
$ double precision, parameter :: f204 = 4.8128d+1
$ double precision, parameter :: f205 = 2.6217d-4
$ double precision, parameter :: f206 = 8.9940d0
$ double precision, parameter :: f207 = 5.1237d-7
$ double precision, parameter :: f208 = 1.1961d-1
$ double precision, parameter :: f209 = 1.6106d-5
$ double precision, parameter :: f210 = 2.5973d0
$ double precision, parameter :: f211 = 8.9537d0
$ double precision, parameter :: f212 = 1.1512d+1
$ double precision, parameter :: f213 = 5.9358d0
$ double precision, parameter :: f214 = 1.5158d+1
$ double precision, parameter :: f215 = 9.6268d-8
$ double precision, parameter :: f216 = 3.7983d-4
$ double precision, parameter :: f217 = 6.6962d-5
$ double precision, parameter :: f218 = 3.6937d-4
$ double precision, parameter :: f219 = 6.7720d-8
$ double precision, parameter :: f220 = 7.6004d+1
$ double precision, parameter :: f221 = 9.4037d+2
$ double precision, parameter :: f222 = 6.2269d-5
$ double precision, parameter :: f223 = 3.9400d-2
$ double precision, parameter :: f224 = 2.3699d-1
$ double precision, parameter :: f225 = 2.4940d-4
$ double precision, parameter :: f226 = 1.0961d-1
$ double precision, parameter :: f227 = 7.5356d-4
$ double precision, parameter :: f228 = 1.4555d-5
$ double precision, parameter :: f229 = 4.6840d-3
$ double precision, parameter :: f230 = 1.7162d+1
$ double precision, parameter :: f231 = 9.6982d-1
$ double precision, parameter :: f232 = 1.1152d+1
$ double precision, parameter :: f233 = 7.0410d-2
$ double precision, parameter :: f234 = 1.9557d-7
$ double precision, parameter :: f235 = 6.7434d-1
$ double precision, parameter :: f236 = 1.6234d-2
$ double precision, parameter :: f237 = 1.1203d+2
$ double precision, parameter :: f238 = 7.7547d-8
$ double precision, parameter :: f239 = 1.9245d-7
$ double precision, parameter :: f240 = 4.2147d+1
$ double precision, parameter :: f241 = 6.7650d+1
$ double precision, parameter :: f242 = 9.6197d+1
$ double precision, parameter :: f243 = 2.3155d-7
$ double precision, parameter :: f244 = 7.8703d-7
$ double precision, parameter :: f245 = 8.3823d-4
$ double precision, parameter :: f246 = 7.6433d-2
$ double precision, parameter :: f247 = 1.4930d-2
$ double precision, parameter :: f248 = 1.6691d-7
$ double precision, parameter :: f249 = 6.5808d+2
$ double precision, parameter :: f250 = 3.1860d+2
$ double precision, parameter :: f251 = 3.6643d-3
$ double precision, parameter :: f252 = 1.4494d-8
$ double precision, parameter :: f253 = 3.3789d-8
$ double precision, parameter :: f254 = 4.6375d-7
$ double precision, parameter :: f255 = 3.2303d-5
$ double precision, parameter :: f256 = 5.9121d0
$ double precision, parameter :: f257 = 1.9716d-5
$ double precision, parameter :: f258 = 2.6204d-8
$ double precision, parameter :: f259 = 4.2474d0
$ double precision, parameter :: f260 = 6.9976d-6
$ double precision, parameter :: f261 = 1.8480d-4
$ double precision, parameter :: f262 = 8.4696d-4
$ double precision, parameter :: f263 = 1.3357d-5
$ double precision, parameter :: f264 = 8.9715d-4
$ double precision, parameter :: f265 = 3.2768d-5
$ double precision, parameter :: f266 = 3.6126d-4
$ double precision, parameter :: f267 = 2.5289d-4
$ double precision, parameter :: f268 = 2.9244d+1
$ double precision, parameter :: f269 = 1.3087d-5
$ double precision, parameter :: f270 = 5.8789d-4
$ double precision, parameter :: f271 = 7.6571d+1
$ double precision, parameter :: f272 = 5.8520d-5
$ double precision, parameter :: f273 = 4.2635d-2
$ double precision, parameter :: f274 = 1.4375d+1
$ double precision, parameter :: f275 = 1.1888d-2
$ double precision, parameter :: f276 = 1.3325d-4
$ double precision, parameter :: f277 = 5.0107d+1
$ double precision, parameter :: f278 = 3.1591d-1
$ double precision, parameter :: f279 = 3.6482d+2
$ double precision, parameter :: f280 = 2.8525d-4
$ double precision, parameter :: f281 = 2.5049d-3
$ double precision, parameter :: f282 = 3.4914d-2
$ double precision, parameter :: f283 = 6.2726d-3
$ double precision, parameter :: f284 = 3.2795d-1
$ double precision, parameter :: f285 = 3.5237d-7
$ double precision, parameter :: f286 = 7.6763d+1
$ double precision, parameter :: f287 = 2.1678d+2
$ double precision, parameter :: f288 = 3.6371d-7
$ double precision, parameter :: f289 = 4.5456d+2
$ double precision, parameter :: f290 = 4.8079d+2
$ double precision, parameter :: f291 = 1.5862d-8
$ double precision, parameter :: f292 = 3.1040d-4
$ double precision, parameter :: f293 = 1.0764d-6
$ double precision, parameter :: f294 = 1.0089d-5
$ double precision, parameter :: f295 = 1.6292d-2
$ double precision, parameter :: f296 = 1.7693d-7
$ double precision, parameter :: f297 = 1.7036d-3
$ double precision, parameter :: f298 = 5.3911d-1
$ double precision, parameter :: f299 = 5.4040d+1
$ double precision, parameter :: f300 = 9.0540d+2
$ double precision, parameter :: f301 = 1.2826d-4
$ double precision, parameter :: f302 = 1.5918d-4
$ double precision, parameter :: f303 = 1.4572d-5
$ double precision, parameter :: f304 = 9.6381d-3
$ double precision, parameter :: f305 = 1.7127d-6
$ double precision, parameter :: f306 = 2.0817d+2
$ double precision, parameter :: f307 = 7.3811d-3
$ double precision, parameter :: f308 = 5.3905d-7
$ double precision, parameter :: f309 = 2.7564d-8
$ double precision, parameter :: f310 = 4.5780d-6
$ double precision, parameter :: f311 = 9.7279d-1
$ double precision, parameter :: f312 = 3.1615d+2
$ double precision, parameter :: f313 = 2.2071d-6
$ double precision, parameter :: f314 = 2.5058d+2
$ double precision, parameter :: f315 = 4.3506d-8

# Electron Collision Reaction
e + CH4 => e + CH4(v24)		! f0 * Bolsig+ CH4 -> CH4(v24)
e + CH4 => e + CH4(v13)		! f1 * Bolsig+ CH4 -> CH4(v13)
e + C2H6 => e + C2H6(v24)		! f2 * Bolsig+ C2H6 -> C2H6(v24)
e + C2H6 => e + C2H6(v13)		! f3 * Bolsig+ C2H6 -> C2H6(v13)
e + C2H4 => e + C2H4(v1)		! f4 * Bolsig+ C2H4 -> C2H4(v1)
e + C2H4 => e + C2H4(v2)		! f5 * Bolsig+ C2H4 -> C2H4(v2)
e + C2H2 => e + C2H2(v5)		! f6 * Bolsig+ C2H2 -> C2H2(v5)
e + C2H2 => e + C2H2(v2)		! f7 * Bolsig+ C2H2 -> C2H2(v2)
e + C2H2 => e + C2H2(v13)		! f8 * Bolsig+ C2H2 -> C2H2(v13)
e + C3H8 => e + C3H8(v1)		! f9 * Bolsig+ C3H8 -> C3H8(v1)
e + C3H8 => e + C3H8(v2)		! f10 * Bolsig+ C3H8 -> C3H8(v2)
e + C3H6 => e + C3H6(v)		! f11 * Bolsig+ C3H6 -> C3H6(v)
e + CH4 => e + CH3 + H		! f12 * Bolsig+ CH4 -> CH3 H
e + CH4(v24) => e + CH3 + H		! f12 * Bolsig+ CH4(v24) -> CH3 H
e + CH4(v13) => e + CH3 + H		! f12 * Bolsig+ CH4(v13) -> CH3 H
e + CH4 => e + CH2 + H2		! f13 * Bolsig+ CH4 -> CH2 H2
e + CH4(v24) => e + CH2 + H2		! f13 * Bolsig+ CH4(v24) -> CH2 H2
e + CH4(v13) => e + CH2 + H2		! f13 * Bolsig+ CH4(v13) -> CH2 H2
e + CH4 => e + CH + H2 + H		! f14 * Bolsig+ CH4 -> CH H2 H
e + CH4(v24) => e + CH + H2 + H		! f14 * Bolsig+ CH4(v24) -> CH H2 H
e + CH4(v13) => e + CH + H2 + H		! f14 * Bolsig+ CH4(v13) -> CH H2 H
e + CH4 => e + C + H2 + H2		! f15 * Bolsig+ CH4 -> C H2 H2
e + CH4(v24) => e + C + H2 + H2		! f15 * Bolsig+ CH4(v24) -> C H2 H2
e + CH4(v13) => e + C + H2 + H2		! f15 * Bolsig+ CH4(v13) -> C H2 H2
e + CH3 => e + CH2 + H		! f16 * Bolsig+ CH3 -> CH2 H
e + CH3 => e + CH + H2		! f17 * Bolsig+ CH3 -> CH H2
e + CH3 => e + C + H2 + H		! f18 * Bolsig+ CH3 -> C H2 H
e + CH2 => e + CH + H		! f19 * Bolsig+ CH2 -> CH H
e + CH2 => e + C + H2		! f20 * Bolsig+ CH2 -> C H2
e + CH2 => e + C + H + H		! f21 * Bolsig+ CH2 -> C H H
e + CH => e + C + H		! f22 * Bolsig+ CH -> C H
e + CH4 => e + e + CH4^+		! f23 * Bolsig+ CH4 -> CH4^+
e + CH4(v24) => e + e + CH4^+		! f23 * Bolsig+ CH4(v24) -> CH4^+
e + CH4(v13) => e + e + CH4^+		! f23 * Bolsig+ CH4(v13) -> CH4^+
e + CH4 => e + e + H + CH3^+		! f24 * Bolsig+ CH4 -> H CH3^+
e + CH4(v24) => e + e + H + CH3^+		! f24 * Bolsig+ CH4(v24) -> H CH3^+
e + CH4(v13) => e + e + H + CH3^+		! f24 * Bolsig+ CH4(v13) -> H CH3^+
e + CH4 => e + e + H2 + CH2^+		! f25 * Bolsig+ CH4 -> H2 CH2^+
e + CH4(v24) => e + e + H2 + CH2^+		! f25 * Bolsig+ CH4(v24) -> H2 CH2^+
e + CH4(v13) => e + e + H2 + CH2^+		! f25 * Bolsig+ CH4(v13) -> H2 CH2^+
e + CH4 => e + e + H2 + H + CH^+		! f26 * Bolsig+ CH4 -> H2 H CH^+
e + CH4(v24) => e + e + H2 + H + CH^+		! f26 * Bolsig+ CH4(v24) -> H2 H CH^+
e + CH4(v13) => e + e + H2 + H + CH^+		! f26 * Bolsig+ CH4(v13) -> H2 H CH^+
e + CH3 => e + e + CH3^+		! f27 * Bolsig+ CH3 -> CH3^+
e + CH3 => e + e + H + CH2^+		! f28 * Bolsig+ CH3 -> H CH2^+
e + CH3 => e + e + H2 + CH^+		! f29 * Bolsig+ CH3 -> H2 CH^+
e + CH2 => e + e + CH2^+		! f30 * Bolsig+ CH2 -> CH2^+
e + CH2 => e + e + H + CH^+		! f31 * Bolsig+ CH2 -> H CH^+
e + CH => e + e + CH^+		! f32 * Bolsig+ CH -> CH^+
e + C2H6 => e + C2H5 + H		! f33 * Bolsig+ C2H6 -> C2H5 H
e + C2H6(v24) => e + C2H5 + H		! f33 * Bolsig+ C2H6(v24) -> C2H5 H
e + C2H6(v13) => e + C2H5 + H		! f33 * Bolsig+ C2H6(v13) -> C2H5 H
e + C2H6 => e + C2H4 + H2		! f34 * Bolsig+ C2H6 -> C2H4 H2
e + C2H6(v24) => e + C2H4 + H2		! f34 * Bolsig+ C2H6(v24) -> C2H4 H2
e + C2H6(v13) => e + C2H4 + H2		! f34 * Bolsig+ C2H6(v13) -> C2H4 H2
e + C2H6 => e + C2H3 + H2 + H		! f35 * Bolsig+ C2H6 -> C2H3 H2 H
e + C2H6(v24) => e + C2H3 + H2 + H		! f35 * Bolsig+ C2H6(v24) -> C2H3 H2 H
e + C2H6(v13) => e + C2H3 + H2 + H		! f35 * Bolsig+ C2H6(v13) -> C2H3 H2 H
e + C2H6 => e + C2H2 + H2 + H2		! f36 * Bolsig+ C2H6 -> C2H2 H2 H2
e + C2H6(v24) => e + C2H2 + H2 + H2		! f36 * Bolsig+ C2H6(v24) -> C2H2 H2 H2
e + C2H6(v13) => e + C2H2 + H2 + H2		! f36 * Bolsig+ C2H6(v13) -> C2H2 H2 H2
e + C2H6 => e + CH4 + CH2		! f37 * Bolsig+ C2H6 -> CH4 CH2
e + C2H6(v24) => e + CH4 + CH2		! f37 * Bolsig+ C2H6(v24) -> CH4 CH2
e + C2H6(v13) => e + CH4 + CH2		! f37 * Bolsig+ C2H6(v13) -> CH4 CH2
e + C2H6 => e + CH3 + CH3		! f38 * Bolsig+ C2H6 -> CH3 CH3
e + C2H6(v24) => e + CH3 + CH3		! f38 * Bolsig+ C2H6(v24) -> CH3 CH3
e + C2H6(v13) => e + CH3 + CH3		! f38 * Bolsig+ C2H6(v13) -> CH3 CH3
e + C2H5 => e + C2H4 + H		! f39 * Bolsig+ C2H5 -> C2H4 H
e + C2H5 => e + C2H3 + H2		! f40 * Bolsig+ C2H5 -> C2H3 H2
e + C2H5 => e + C2H3 + H + H		! f41 * Bolsig+ C2H5 -> C2H3 H H
e + C2H5 => e + C2H2 + H2 + H		! f42 * Bolsig+ C2H5 -> C2H2 H2 H
e + C2H5 => e + CH4 + CH		! f43 * Bolsig+ C2H5 -> CH4 CH
e + C2H5 => e + CH3 + CH2		! f44 * Bolsig+ C2H5 -> CH3 CH2
e + C2H4 => e + C2H3 + H		! f45 * Bolsig+ C2H4 -> C2H3 H
e + C2H4(v1) => e + C2H3 + H		! f45 * Bolsig+ C2H4(v1) -> C2H3 H
e + C2H4(v2) => e + C2H3 + H		! f45 * Bolsig+ C2H4(v2) -> C2H3 H
e + C2H4 => e + C2H2 + H2		! f46 * Bolsig+ C2H4 -> C2H2 H2
e + C2H4(v1) => e + C2H2 + H2		! f46 * Bolsig+ C2H4(v1) -> C2H2 H2
e + C2H4(v2) => e + C2H2 + H2		! f46 * Bolsig+ C2H4(v2) -> C2H2 H2
e + C2H4 => e + C2H2 + H + H		! f47 * Bolsig+ C2H4 -> C2H2 H H
e + C2H4(v1) => e + C2H2 + H + H		! f47 * Bolsig+ C2H4(v1) -> C2H2 H H
e + C2H4(v2) => e + C2H2 + H + H		! f47 * Bolsig+ C2H4(v2) -> C2H2 H H
e + C2H4 => e + CH3 + CH		! f48 * Bolsig+ C2H4 -> CH3 CH
e + C2H4(v1) => e + CH3 + CH		! f48 * Bolsig+ C2H4(v1) -> CH3 CH
e + C2H4(v2) => e + CH3 + CH		! f48 * Bolsig+ C2H4(v2) -> CH3 CH
e + C2H4 => e + CH2 + CH2		! f49 * Bolsig+ C2H4 -> CH2 CH2
e + C2H4(v1) => e + CH2 + CH2		! f49 * Bolsig+ C2H4(v1) -> CH2 CH2
e + C2H4(v2) => e + CH2 + CH2		! f49 * Bolsig+ C2H4(v2) -> CH2 CH2
e + C2H3 => e + C2H2 + H		! f50 * Bolsig+ C2H3 -> C2H2 H
e + C2H3 => e + CH2 + CH		! f51 * Bolsig+ C2H3 -> CH2 CH
e + C2H2 => e + CH + CH		! f52 * Bolsig+ C2H2 -> CH CH
e + C2H2(v5) => e + CH + CH		! f52 * Bolsig+ C2H2(v5) -> CH CH
e + C2H2(v2) => e + CH + CH		! f52 * Bolsig+ C2H2(v2) -> CH CH
e + C2H2(v13) => e + CH + CH		! f52 * Bolsig+ C2H2(v13) -> CH CH
e + C2H6 => e + e + C2H6^+		! f53 * Bolsig+ C2H6 -> C2H6^+
e + C2H6(v24) => e + e + C2H6^+		! f53 * Bolsig+ C2H6(v24) -> C2H6^+
e + C2H6(v13) => e + e + C2H6^+		! f53 * Bolsig+ C2H6(v13) -> C2H6^+
e + C2H6 => e + e + H + C2H5^+		! f54 * Bolsig+ C2H6 -> H C2H5^+
e + C2H6(v24) => e + e + H + C2H5^+		! f54 * Bolsig+ C2H6(v24) -> H C2H5^+
e + C2H6(v13) => e + e + H + C2H5^+		! f54 * Bolsig+ C2H6(v13) -> H C2H5^+
e + C2H6 => e + e + H2 + C2H4^+		! f55 * Bolsig+ C2H6 -> H2 C2H4^+
e + C2H6(v24) => e + e + H2 + C2H4^+		! f55 * Bolsig+ C2H6(v24) -> H2 C2H4^+
e + C2H6(v13) => e + e + H2 + C2H4^+		! f55 * Bolsig+ C2H6(v13) -> H2 C2H4^+
e + C2H6 => e + e + H2 + H + C2H3^+		! f56 * Bolsig+ C2H6 -> H2 H C2H3^+
e + C2H6(v24) => e + e + H2 + H + C2H3^+		! f56 * Bolsig+ C2H6(v24) -> H2 H C2H3^+
e + C2H6(v13) => e + e + H2 + H + C2H3^+		! f56 * Bolsig+ C2H6(v13) -> H2 H C2H3^+
e + C2H6 => e + e + H2 + H2 + C2H2^+		! f57 * Bolsig+ C2H6 -> H2 H2 C2H2^+
e + C2H6(v24) => e + e + H2 + H2 + C2H2^+		! f57 * Bolsig+ C2H6(v24) -> H2 H2 C2H2^+
e + C2H6(v13) => e + e + H2 + H2 + C2H2^+		! f57 * Bolsig+ C2H6(v13) -> H2 H2 C2H2^+
e + C2H6 => e + e + CH3 + CH3^+		! f58 * Bolsig+ C2H6 -> CH3 CH3^+
e + C2H6(v24) => e + e + CH3 + CH3^+		! f58 * Bolsig+ C2H6(v24) -> CH3 CH3^+
e + C2H6(v13) => e + e + CH3 + CH3^+		! f58 * Bolsig+ C2H6(v13) -> CH3 CH3^+
e + C2H6 => e + e + CH4 + CH2^+		! f59 * Bolsig+ C2H6 -> CH4 CH2^+
e + C2H6(v24) => e + e + CH4 + CH2^+		! f59 * Bolsig+ C2H6(v24) -> CH4 CH2^+
e + C2H6(v13) => e + e + CH4 + CH2^+		! f59 * Bolsig+ C2H6(v13) -> CH4 CH2^+
e + C2H5 => e + e + C2H5^+		! f60 * Bolsig+ C2H5 -> C2H5^+
e + C2H5 => e + e + H + C2H4^+		! f61 * Bolsig+ C2H5 -> H C2H4^+
e + C2H5 => e + e + H2 + C2H3^+		! f62 * Bolsig+ C2H5 -> H2 C2H3^+
e + C2H5 => e + e + H2 + H + C2H2^+		! f63 * Bolsig+ C2H5 -> H2 H C2H2^+
e + C2H5 => e + e + CH2 + CH3^+		! f64 * Bolsig+ C2H5 -> CH2 CH3^+
e + C2H5 => e + e + CH3 + CH2^+		! f65 * Bolsig+ C2H5 -> CH3 CH2^+
e + C2H5 => e + e + CH4 + CH^+		! f66 * Bolsig+ C2H5 -> CH4 CH^+
e + C2H4 => e + e + C2H4^+		! f67 * Bolsig+ C2H4 -> C2H4^+
e + C2H4(v1) => e + e + C2H4^+		! f67 * Bolsig+ C2H4(v1) -> C2H4^+
e + C2H4(v2) => e + e + C2H4^+		! f67 * Bolsig+ C2H4(v2) -> C2H4^+
e + C2H4 => e + e + H + C2H3^+		! f68 * Bolsig+ C2H4 -> H C2H3^+
e + C2H4(v1) => e + e + H + C2H3^+		! f68 * Bolsig+ C2H4(v1) -> H C2H3^+
e + C2H4(v2) => e + e + H + C2H3^+		! f68 * Bolsig+ C2H4(v2) -> H C2H3^+
e + C2H4 => e + e + CH + CH3^+		! f69 * Bolsig+ C2H4 -> CH CH3^+
e + C2H4(v1) => e + e + CH + CH3^+		! f69 * Bolsig+ C2H4(v1) -> CH CH3^+
e + C2H4(v2) => e + e + CH + CH3^+		! f69 * Bolsig+ C2H4(v2) -> CH CH3^+
e + C2H4 => e + e + CH2 + CH2^+		! f70 * Bolsig+ C2H4 -> CH2 CH2^+
e + C2H4(v1) => e + e + CH2 + CH2^+		! f70 * Bolsig+ C2H4(v1) -> CH2 CH2^+
e + C2H4(v2) => e + e + CH2 + CH2^+		! f70 * Bolsig+ C2H4(v2) -> CH2 CH2^+
e + C2H4 => e + e + CH3 + CH^+		! f71 * Bolsig+ C2H4 -> CH3 CH^+
e + C2H4(v1) => e + e + CH3 + CH^+		! f71 * Bolsig+ C2H4(v1) -> CH3 CH^+
e + C2H4(v2) => e + e + CH3 + CH^+		! f71 * Bolsig+ C2H4(v2) -> CH3 CH^+
e + C2H3 => e + e + C2H3^+		! f72 * Bolsig+ C2H3 -> C2H3^+
e + C2H3 => e + e + H + C2H2^+		! f73 * Bolsig+ C2H3 -> H C2H2^+
e + C2H3 => e + e + CH + CH2^+		! f74 * Bolsig+ C2H3 -> CH CH2^+
e + C2H3 => e + e + CH2 + CH^+		! f75 * Bolsig+ C2H3 -> CH2 CH^+
e + C2H3 => e + e + C2H2 + H^+		! f76 * Bolsig+ C2H3 -> C2H2 H^+
e + C2H2 => e + e + C2H2^+		! f77 * Bolsig+ C2H2 -> C2H2^+
e + C2H2(v5) => e + e + C2H2^+		! f77 * Bolsig+ C2H2(v5) -> C2H2^+
e + C2H2(v2) => e + e + C2H2^+		! f77 * Bolsig+ C2H2(v2) -> C2H2^+
e + C2H2(v13) => e + e + C2H2^+		! f77 * Bolsig+ C2H2(v13) -> C2H2^+
e + C2H2 => e + e + CH + CH^+		! f78 * Bolsig+ C2H2 -> CH CH^+
e + C2H2(v5) => e + e + CH + CH^+		! f78 * Bolsig+ C2H2(v5) -> CH CH^+
e + C2H2(v2) => e + e + CH + CH^+		! f78 * Bolsig+ C2H2(v2) -> CH CH^+
e + C2H2(v13) => e + e + CH + CH^+		! f78 * Bolsig+ C2H2(v13) -> CH CH^+
e + C3H8 => e + C3H7 + H		! f79 * Bolsig+ C3H8 -> C3H7 H
e + C3H8(v1) => e + C3H7 + H		! f79 * Bolsig+ C3H8(v1) -> C3H7 H
e + C3H8(v2) => e + C3H7 + H		! f79 * Bolsig+ C3H8(v2) -> C3H7 H
e + C3H8 => e + C3H6 + H2		! f80 * Bolsig+ C3H8 -> C3H6 H2
e + C3H8(v1) => e + C3H6 + H2		! f80 * Bolsig+ C3H8(v1) -> C3H6 H2
e + C3H8(v2) => e + C3H6 + H2		! f80 * Bolsig+ C3H8(v2) -> C3H6 H2
e + C3H7 => e + C3H6 + H		! f81 * Bolsig+ C3H7 -> C3H6 H
e + C3H8 => e + e + C3H8^+		! f82 * Bolsig+ C3H8 -> C3H8^+
e + C3H8(v1) => e + e + C3H8^+		! f82 * Bolsig+ C3H8(v1) -> C3H8^+
e + C3H8(v2) => e + e + C3H8^+		! f82 * Bolsig+ C3H8(v2) -> C3H8^+
e + C3H8 => e + e + H + C3H7^+		! f83 * Bolsig+ C3H8 -> H C3H7^+
e + C3H8(v1) => e + e + H + C3H7^+		! f83 * Bolsig+ C3H8(v1) -> H C3H7^+
e + C3H8(v2) => e + e + H + C3H7^+		! f83 * Bolsig+ C3H8(v2) -> H C3H7^+
e + C3H8 => e + e + H2 + C3H6^+		! f84 * Bolsig+ C3H8 -> H2 C3H6^+
e + C3H8(v1) => e + e + H2 + C3H6^+		! f84 * Bolsig+ C3H8(v1) -> H2 C3H6^+
e + C3H8(v2) => e + e + H2 + C3H6^+		! f84 * Bolsig+ C3H8(v2) -> H2 C3H6^+
e + C3H7 => e + e + C3H7^+		! f85 * Bolsig+ C3H7 -> C3H7^+
e + C3H7 => e + e + H + C3H6^+		! f86 * Bolsig+ C3H7 -> H C3H6^+
e + C3H6 => e + e + C3H6^+		! f87 * Bolsig+ C3H6 -> C3H6^+
e + C3H6(v) => e + e + C3H6^+		! f87 * Bolsig+ C3H6(v) -> C3H6^+
e + C3H6 => e + C2H2 + CH4		! f88 * Bolsig+ C3H6 -> C2H2 CH4
e + C3H6(v) => e + C2H2 + CH4		! f88 * Bolsig+ C3H6(v) -> C2H2 CH4
e + C3H6 => e + e + C2H2 + CH4^+		! f89 * Bolsig+ C3H6 -> C2H2 CH4^+
e + C3H6(v) => e + e + C2H2 + CH4^+		! f89 * Bolsig+ C3H6(v) -> C2H2 CH4^+

# Ion Recombination Reaction
e + e + CH^+ => e + CH		! f90 * 1.00d0
e + e + CH2^+ => e + CH2		! f91 * 1.00d0
e + e + CH3^+ => e + CH3		! f92 * 1.00d0
e + e + CH4^+ => e + CH4		! f93 * 1.00d0
e + e + C2H2^+ => e + C2H2		! f94 * 1.00d0
e + e + C2H3^+ => e + C2H3		! f95 * 1.00d0
e + e + C2H4^+ => e + C2H4		! f96 * 1.00d0
e + e + C2H5^+ => e + C2H5		! f97 * 1.00d0
e + e + C2H6^+ => e + C2H6		! f98 * 1.00d0
e + e + C3H6^+ => e + C3H6		! f99 * 1.00d0
e + e + C3H7^+ => e + C3H7		! f100 * 1.00d0
e + e + C3H8^+ => e + C3H8		! f101 * 1.00d0

# Gas Phase Reaction
e + CH4^+ => CH3 + H		! f102 * 1.18d-08 * (300./Tgas)**0.5
e + CH4^+ => CH2 + H + H		! f103 * 2.42d-08 * (300./Tgas)**0.5
e + CH4^+ => CH + H2 + H		! f104 * 1.41d-08 * (300./Tgas)**0.5
e + CH3^+ => CH2 + H		! f105 * 2.25d-08 * (300./Tgas)**0.5
e + CH3^+ => CH + H2		! f106 * 7.88d-09 * (300./Tgas)**0.5
e + CH3^+ => CH + H + H		! f107 * 9.00d-09 * (300./Tgas)**0.5
e + CH3^+ => C + H2 + H		! f108 * 1.69d-08 * (300./Tgas)**0.5
e + CH2^+ => CH + H		! f109 * 1.00d-08 * (300./Tgas)**0.5
e + CH2^+ => C + H2		! f110 * 4.82d-09 * (300./Tgas)**0.5
e + CH2^+ => C + H + H		! f111 * 2.53d-08 * (300./Tgas)**0.5
e + CH^+ => C + H		! f112 * 3.23d-08 * (300./Tgas)**0.42
e + C2H6^+ => C2H5 + H		! f113 * 2.19d-08 * (300./Tgas)**0.71
e + C2H6^+ => C2H4 + H + H		! f114 * 3.36d-08 * (300./Tgas)**0.71
e + C2H5^+ => C2H4 + H		! f115 * 7.70d-09 * (300./Tgas)**0.71
e + C2H5^+ => C2H3 + H + H		! f116 * 1.92d-08 * (300./Tgas)**0.71
e + C2H5^+ => C2H2 + H2 + H		! f117 * 1.60d-08 * (300./Tgas)**0.71
e + C2H5^+ => C2H2 + H + H + H		! f118 * 8.98d-09 * (300./Tgas)**0.71
e + C2H5^+ => CH3 + CH2		! f119 * 9.62d-09 * (300./Tgas)**0.71
e + C2H4^+ => C2H3 + H		! f120 * 8.29d-09 * (300./Tgas)**0.71
e + C2H4^+ => C2H2 + H + H		! f121 * 3.43d-08 * (300./Tgas)**0.71
e + C2H3^+ => C2H2 + H		! f122 * 1.34d-08 * (300./Tgas)**0.71
e + C2H2^+ => CH + CH		! f123 * 4.87d-09 * (300./Tgas)**0.71
e + H2^+ => H + H		! f124 * 3.17d21/(6.022d23 * Te**4.5)
e + H3^+ => H + H2		! f125 * 3.17d21/(6.022d23 * Te**4.5)
H2 + H2^+ => H + H3^+		! f126 * 2.11d-09
C2H6 + CH4^+ => CH4 + H2 + C2H4^+		! f127 * 1.91d-9
C2H6(v24) + CH4^+ => CH4 + H2 + C2H4^+		! f127 * 1.91d-9
C2H6(v13) + CH4^+ => CH4 + H2 + C2H4^+		! f127 * 1.91d-9
C2H4 + CH4^+ => CH3 + C2H5^+		! f128 * 4.23d-10