ELEMENTS
e C H
END

SPECIES
e C CH CH^+ CH2 CH2^+ CH3 CH3^+ CH4 CH4(v13) CH4(v24) CH4^+ C2H2 C2H2(v13) C2H2(v2) C2H2(v5) C2H2^+ C2H3 C2H3^+ C2H4 C2H4(v1) C2H4(v2) C2H4^+ C2H5 C2H5^+
C2H6 C2H6(v13) C2H6(v24) C2H6^+ C3H5 C3H6 C3H6(v) C3H6^+ C3H7 C3H7^+ C3H8 C3H8(v1) C3H8(v2) C3H8^+ C4H9 C4H9H C2H C5H12 H H2 H2^+ H3^+ H^+
END

BOLSIG
CH CH2 CH3 CH4 CH4(v13) CH4(v24) C2H2 C2H2(v13) C2H2(v2) C2H2(v5) C2H3 C2H4 C2H4(v1) C2H4(v2) C2H5 C2H6 C2H6(v13) C2H6(v24) C3H6 C3H6(v) C3H7 C3H8 C3H8(v1) C3H8(v2)
END

REACTIONS
# Gas Constant
$ double precision, parameter :: R = 8.314d-3

# Compensation Parameters
$ double precision, parameter :: f0 = 1.8696d-3
$ double precision, parameter :: f1 = 3.0632d+1
$ double precision, parameter :: f2 = 5.9239d-2
$ double precision, parameter :: f3 = 6.0989d-5
$ double precision, parameter :: f4 = 1.4742d-5
$ double precision, parameter :: f5 = 5.6534d-7
$ double precision, parameter :: f6 = 3.9436d-4
$ double precision, parameter :: f7 = 1.0779d-2
$ double precision, parameter :: f8 = 1.7653d-3
$ double precision, parameter :: f9 = 2.3312d-1
$ double precision, parameter :: f10 = 4.6128d+1
$ double precision, parameter :: f11 = 1.2857d+1
$ double precision, parameter :: f12 = 4.5803d-6
$ double precision, parameter :: f13 = 1.4054d-2
$ double precision, parameter :: f14 = 9.2498d-8
$ double precision, parameter :: f15 = 4.0200d-7
$ double precision, parameter :: f16 = 1.0128d+2
$ double precision, parameter :: f17 = 8.3860d-2
$ double precision, parameter :: f18 = 1.3404d-6
$ double precision, parameter :: f19 = 2.4283d+1
$ double precision, parameter :: f20 = 3.2545d-3
$ double precision, parameter :: f21 = 8.1586d-1
$ double precision, parameter :: f22 = 1.5991d-4
$ double precision, parameter :: f23 = 8.8407d-3
$ double precision, parameter :: f24 = 1.3769d0
$ double precision, parameter :: f25 = 4.6443d-2
$ double precision, parameter :: f26 = 7.5217d+1
$ double precision, parameter :: f27 = 2.5498d-5
$ double precision, parameter :: f28 = 7.2996d-4
$ double precision, parameter :: f29 = 9.1196d-7
$ double precision, parameter :: f30 = 2.2471d-7
$ double precision, parameter :: f31 = 3.0870d+1
$ double precision, parameter :: f32 = 1.0011d-6
$ double precision, parameter :: f33 = 2.2738d-6
$ double precision, parameter :: f34 = 6.2856d0
$ double precision, parameter :: f35 = 2.3510d+1
$ double precision, parameter :: f36 = 8.4309d0
$ double precision, parameter :: f37 = 3.2169d-1
$ double precision, parameter :: f38 = 3.6222d-5
$ double precision, parameter :: f39 = 6.5671d-4
$ double precision, parameter :: f40 = 1.0880d-1
$ double precision, parameter :: f41 = 1.8070d-1
$ double precision, parameter :: f42 = 1.4120d-8
$ double precision, parameter :: f43 = 3.2791d0
$ double precision, parameter :: f44 = 4.4011d-6
$ double precision, parameter :: f45 = 5.1234d-1
$ double precision, parameter :: f46 = 2.8880d+1
$ double precision, parameter :: f47 = 3.9689d-1
$ double precision, parameter :: f48 = 4.8622d-2
$ double precision, parameter :: f49 = 2.7942d-7
$ double precision, parameter :: f50 = 3.6385d-3
$ double precision, parameter :: f51 = 1.9726d+1
$ double precision, parameter :: f52 = 1.5683d-7
$ double precision, parameter :: f53 = 1.7273d0
$ double precision, parameter :: f54 = 2.2542d-1
$ double precision, parameter :: f55 = 1.4477d-8
$ double precision, parameter :: f56 = 4.1320d-1
$ double precision, parameter :: f57 = 2.1235d-8
$ double precision, parameter :: f58 = 5.5708d-4
$ double precision, parameter :: f59 = 4.5577d-7
$ double precision, parameter :: f60 = 1.4338d-8
$ double precision, parameter :: f61 = 2.1471d0
$ double precision, parameter :: f62 = 9.5468d+2
$ double precision, parameter :: f63 = 6.2657d-6
$ double precision, parameter :: f64 = 2.7991d-3
$ double precision, parameter :: f65 = 6.5703d-5
$ double precision, parameter :: f66 = 1.4747d+1
$ double precision, parameter :: f67 = 4.5481d-6
$ double precision, parameter :: f68 = 7.3836d-6
$ double precision, parameter :: f69 = 6.2899d-8
$ double precision, parameter :: f70 = 1.0333d-8
$ double precision, parameter :: f71 = 4.7192d-3
$ double precision, parameter :: f72 = 5.6526d-8
$ double precision, parameter :: f73 = 7.3712d-4
$ double precision, parameter :: f74 = 3.8348d+2
$ double precision, parameter :: f75 = 2.4496d+2
$ double precision, parameter :: f76 = 4.3285d-7
$ double precision, parameter :: f77 = 1.1327d0
$ double precision, parameter :: f78 = 2.4945d+2
$ double precision, parameter :: f79 = 6.3867d-8
$ double precision, parameter :: f80 = 3.6315d0
$ double precision, parameter :: f81 = 1.0019d-5
$ double precision, parameter :: f82 = 1.8895d+2
$ double precision, parameter :: f83 = 3.6550d+1
$ double precision, parameter :: f84 = 1.0752d-6
$ double precision, parameter :: f85 = 4.3219d-2
$ double precision, parameter :: f86 = 2.0155d-6
$ double precision, parameter :: f87 = 5.8841d-7
$ double precision, parameter :: f88 = 1.0401d-5
$ double precision, parameter :: f89 = 2.2080d-8
$ double precision, parameter :: f90 = 1.0809d-2
$ double precision, parameter :: f91 = 7.4970d-6
$ double precision, parameter :: f92 = 1.2018d-8
$ double precision, parameter :: f93 = 7.5835d-1
$ double precision, parameter :: f94 = 2.6793d-1
$ double precision, parameter :: f95 = 6.9947d-4
$ double precision, parameter :: f96 = 1.6025d-8
$ double precision, parameter :: f97 = 2.3902d-4
$ double precision, parameter :: f98 = 2.7282d-5
$ double precision, parameter :: f99 = 3.3631d+1
$ double precision, parameter :: f100 = 5.0259d-6
$ double precision, parameter :: f101 = 4.4897d-7
$ double precision, parameter :: f102 = 2.4121d-4
$ double precision, parameter :: f103 = 7.4845d-3
$ double precision, parameter :: f104 = 4.4098d-8
$ double precision, parameter :: f105 = 2.9870d+1
$ double precision, parameter :: f106 = 1.5636d-4
$ double precision, parameter :: f107 = 1.0630d-7
$ double precision, parameter :: f108 = 1.9535d-1
$ double precision, parameter :: f109 = 1.4457d-7
$ double precision, parameter :: f110 = 2.5369d+1
$ double precision, parameter :: f111 = 8.6360d-6
$ double precision, parameter :: f112 = 2.2712d-8
$ double precision, parameter :: f113 = 1.6258d-3
$ double precision, parameter :: f114 = 2.2666d-7
$ double precision, parameter :: f115 = 2.3540d-1
$ double precision, parameter :: f116 = 1.2397d0
$ double precision, parameter :: f117 = 1.5907d-4
$ double precision, parameter :: f118 = 1.0256d-3
$ double precision, parameter :: f119 = 8.8476d-3
$ double precision, parameter :: f120 = 1.0159d-5
$ double precision, parameter :: f121 = 6.3308d-5
$ double precision, parameter :: f122 = 1.3779d-4
$ double precision, parameter :: f123 = 4.1066d-6
$ double precision, parameter :: f124 = 5.0880d0
$ double precision, parameter :: f125 = 8.5343d+2
$ double precision, parameter :: f126 = 2.6975d-7
$ double precision, parameter :: f127 = 5.7854d-6
$ double precision, parameter :: f128 = 6.3234d-6
$ double precision, parameter :: f129 = 3.0231d-5
$ double precision, parameter :: f130 = 1.3382d0
$ double precision, parameter :: f131 = 1.1387d-7
$ double precision, parameter :: f132 = 2.4057d-4
$ double precision, parameter :: f133 = 2.2405d-7
$ double precision, parameter :: f134 = 2.2637d-8
$ double precision, parameter :: f135 = 5.3823d0
$ double precision, parameter :: f136 = 1.7873d-5
$ double precision, parameter :: f137 = 7.3678d-3
$ double precision, parameter :: f138 = 1.1393d+1
$ double precision, parameter :: f139 = 8.1808d-3
$ double precision, parameter :: f140 = 5.8119d-1
$ double precision, parameter :: f141 = 5.5840d+1
$ double precision, parameter :: f142 = 5.1372d-8
$ double precision, parameter :: f143 = 4.1780d+2
$ double precision, parameter :: f144 = 1.0591d-4
$ double precision, parameter :: f145 = 2.8446d-6
$ double precision, parameter :: f146 = 7.6976d-6
$ double precision, parameter :: f147 = 7.2524d0
$ double precision, parameter :: f148 = 1.4020d-7
$ double precision, parameter :: f149 = 4.5624d-8
$ double precision, parameter :: f150 = 2.2967d-5
$ double precision, parameter :: f151 = 1.0556d-7
$ double precision, parameter :: f152 = 5.5521d-1
$ double precision, parameter :: f153 = 3.2777d-5
$ double precision, parameter :: f154 = 1.5691d-5
$ double precision, parameter :: f155 = 9.3405d-6
$ double precision, parameter :: f156 = 1.1277d-7
$ double precision, parameter :: f157 = 6.4114d0
$ double precision, parameter :: f158 = 1.8072d+2
$ double precision, parameter :: f159 = 2.5498d-3
$ double precision, parameter :: f160 = 1.2703d-5
$ double precision, parameter :: f161 = 2.5933d+2
$ double precision, parameter :: f162 = 2.2288d0
$ double precision, parameter :: f163 = 2.0422d-7
$ double precision, parameter :: f164 = 1.0266d-5
$ double precision, parameter :: f165 = 3.5726d-3
$ double precision, parameter :: f166 = 7.5970d0
$ double precision, parameter :: f167 = 6.5617d+2
$ double precision, parameter :: f168 = 4.3967d-1
$ double precision, parameter :: f169 = 1.0601d+1
$ double precision, parameter :: f170 = 3.0624d-6
$ double precision, parameter :: f171 = 2.6102d-3
$ double precision, parameter :: f172 = 4.6139d+1
$ double precision, parameter :: f173 = 5.2509d-8
$ double precision, parameter :: f174 = 2.1018d-5
$ double precision, parameter :: f175 = 2.8289d-4
$ double precision, parameter :: f176 = 8.5512d0
$ double precision, parameter :: f177 = 7.6550d-7
$ double precision, parameter :: f178 = 2.5627d-3
$ double precision, parameter :: f179 = 8.7581d-7
$ double precision, parameter :: f180 = 2.7931d-6
$ double precision, parameter :: f181 = 1.5681d-7
$ double precision, parameter :: f182 = 8.1985d-6
$ double precision, parameter :: f183 = 1.1078d-6
$ double precision, parameter :: f184 = 3.0962d-4
$ double precision, parameter :: f185 = 1.8920d-6
$ double precision, parameter :: f186 = 3.2606d-6
$ double precision, parameter :: f187 = 5.6197d-8
$ double precision, parameter :: f188 = 2.5424d-6
$ double precision, parameter :: f189 = 3.4243d0
$ double precision, parameter :: f190 = 2.3452d-8
$ double precision, parameter :: f191 = 3.8557d-2
$ double precision, parameter :: f192 = 1.5885d-5
$ double precision, parameter :: f193 = 9.4231d-3
$ double precision, parameter :: f194 = 2.7639d-8
$ double precision, parameter :: f195 = 3.9988d+1
$ double precision, parameter :: f196 = 6.2274d0
$ double precision, parameter :: f197 = 3.4812d0
$ double precision, parameter :: f198 = 2.3889d-2
$ double precision, parameter :: f199 = 6.5296d-4
$ double precision, parameter :: f200 = 5.5935d-6
$ double precision, parameter :: f201 = 9.3793d+2
$ double precision, parameter :: f202 = 2.0108d0
$ double precision, parameter :: f203 = 1.5286d-1
$ double precision, parameter :: f204 = 1.6924d0
$ double precision, parameter :: f205 = 3.6379d-8
$ double precision, parameter :: f206 = 3.6032d-8
$ double precision, parameter :: f207 = 2.6538d+2
$ double precision, parameter :: f208 = 8.8407d0
$ double precision, parameter :: f209 = 1.0169d0
$ double precision, parameter :: f210 = 7.1174d+1
$ double precision, parameter :: f211 = 6.2836d-5
$ double precision, parameter :: f212 = 7.8313d-7
$ double precision, parameter :: f213 = 4.8707d-1
$ double precision, parameter :: f214 = 8.4137d+1
$ double precision, parameter :: f215 = 1.8457d-1
$ double precision, parameter :: f216 = 4.2548d-8
$ double precision, parameter :: f217 = 6.7576d-1
$ double precision, parameter :: f218 = 1.6258d-4
$ double precision, parameter :: f219 = 1.0777d-1
$ double precision, parameter :: f220 = 5.2313d-5
$ double precision, parameter :: f221 = 1.6579d+1
$ double precision, parameter :: f222 = 4.4178d-3
$ double precision, parameter :: f223 = 1.0389d-3
$ double precision, parameter :: f224 = 5.9268d-1
$ double precision, parameter :: f225 = 3.6274d+2
$ double precision, parameter :: f226 = 8.0774d-3
$ double precision, parameter :: f227 = 4.1371d+1
$ double precision, parameter :: f228 = 3.5813d-3
$ double precision, parameter :: f229 = 2.8605d+1
$ double precision, parameter :: f230 = 1.4029d+1
$ double precision, parameter :: f231 = 7.9513d-2
$ double precision, parameter :: f232 = 3.3518d-2
$ double precision, parameter :: f233 = 3.6550d-6
$ double precision, parameter :: f234 = 4.6012d+2
$ double precision, parameter :: f235 = 1.5672d-2
$ double precision, parameter :: f236 = 1.1248d-5
$ double precision, parameter :: f237 = 4.6811d-1
$ double precision, parameter :: f238 = 2.1032d-1
$ double precision, parameter :: f239 = 3.9005d-2
$ double precision, parameter :: f240 = 4.2319d-4
$ double precision, parameter :: f241 = 1.2426d0
$ double precision, parameter :: f242 = 4.2970d-2
$ double precision, parameter :: f243 = 2.8668d0
$ double precision, parameter :: f244 = 2.9178d0
$ double precision, parameter :: f245 = 1.3532d+2
$ double precision, parameter :: f246 = 9.6108d-6
$ double precision, parameter :: f247 = 4.5704d+2
$ double precision, parameter :: f248 = 3.6658d+1
$ double precision, parameter :: f249 = 1.1050d-5
$ double precision, parameter :: f250 = 1.3030d-3
$ double precision, parameter :: f251 = 2.3633d-2
$ double precision, parameter :: f252 = 9.4232d-1
$ double precision, parameter :: f253 = 2.1096d-8
$ double precision, parameter :: f254 = 1.7729d-6
$ double precision, parameter :: f255 = 1.5681d-2
$ double precision, parameter :: f256 = 2.1694d-1
$ double precision, parameter :: f257 = 2.8263d-3
$ double precision, parameter :: f258 = 8.9086d-8
$ double precision, parameter :: f259 = 2.2277d-3
$ double precision, parameter :: f260 = 3.0667d-7
$ double precision, parameter :: f261 = 1.3457d+2
$ double precision, parameter :: f262 = 3.7695d-2
$ double precision, parameter :: f263 = 2.1039d-8
$ double precision, parameter :: f264 = 5.2177d-6
$ double precision, parameter :: f265 = 8.0936d-7
$ double precision, parameter :: f266 = 1.3423d-1
$ double precision, parameter :: f267 = 2.6230d-2
$ double precision, parameter :: f268 = 4.6606d-2
$ double precision, parameter :: f269 = 1.2773d-3
$ double precision, parameter :: f270 = 3.7145d-1
$ double precision, parameter :: f271 = 2.3183d+1
$ double precision, parameter :: f272 = 2.6835d-5
$ double precision, parameter :: f273 = 3.5302d-5
$ double precision, parameter :: f274 = 6.4528d-4
$ double precision, parameter :: f275 = 2.2067d-2
$ double precision, parameter :: f276 = 3.7884d-2
$ double precision, parameter :: f277 = 6.2375d-8
$ double precision, parameter :: f278 = 3.8723d-5
$ double precision, parameter :: f279 = 9.7430d-2
$ double precision, parameter :: f280 = 2.2423d+2
$ double precision, parameter :: f281 = 1.5808d-1
$ double precision, parameter :: f282 = 1.0807d-7
$ double precision, parameter :: f283 = 5.3919d0
$ double precision, parameter :: f284 = 1.6615d-4
$ double precision, parameter :: f285 = 1.5254d-1
$ double precision, parameter :: f286 = 2.3838d-6
$ double precision, parameter :: f287 = 6.4217d-4
$ double precision, parameter :: f288 = 2.4492d-3
$ double precision, parameter :: f289 = 1.7732d+1
$ double precision, parameter :: f290 = 4.8197d-2
$ double precision, parameter :: f291 = 2.1910d-8
$ double precision, parameter :: f292 = 1.5046d-2
$ double precision, parameter :: f293 = 3.4454d-3
$ double precision, parameter :: f294 = 4.5067d0
$ double precision, parameter :: f295 = 5.8346d+1
$ double precision, parameter :: f296 = 1.5639d+2
$ double precision, parameter :: f297 = 7.0542d-8
$ double precision, parameter :: f298 = 1.0089d+2
$ double precision, parameter :: f299 = 6.4318d-2
$ double precision, parameter :: f300 = 2.5804d-6
$ double precision, parameter :: f301 = 1.2054d-3
$ double precision, parameter :: f302 = 4.1358d-3
$ double precision, parameter :: f303 = 9.3874d-2
$ double precision, parameter :: f304 = 4.4680d+2
$ double precision, parameter :: f305 = 4.4772d0
$ double precision, parameter :: f306 = 3.1604d-3
$ double precision, parameter :: f307 = 2.2027d-3
$ double precision, parameter :: f308 = 1.1646d-6
$ double precision, parameter :: f309 = 5.4339d-2
$ double precision, parameter :: f310 = 6.9662d-3
$ double precision, parameter :: f311 = 5.2639d-3
$ double precision, parameter :: f312 = 7.5760d0
$ double precision, parameter :: f313 = 7.7208d0
$ double precision, parameter :: f314 = 1.4489d+2
$ double precision, parameter :: f315 = 9.4385d-5

# Electron Collision Reaction
e + CH4 => e + CH4(v24)		! f0 * Bolsig+ CH4 -> CH4(v24)
e + CH4 => e + CH4(v13)		! f1 * Bolsig+ CH4 -> CH4(v13)
e + C2H6 => e + C2H6(v24)		! f2 * Bolsig+ C2H6 -> C2H6(v24)
e + C2H6 => e + C2H6(v13)		! f3 * Bolsig+ C2H6 -> C2H6(v13)
e + C2H4 => e + C2H4(v1)		! f4 * Bolsig+ C2H4 -> C2H4(v1)
e + C2H4 => e + C2H4(v2)		! f5 * Bolsig+ C2H4 -> C2H4(v2)
e + C2H2 => e + C2H2(v5)		! f6 * Bolsig+ C2H2 -> C2H2(v5)
e + C2H2 => e + C2H2(v2)		! f7 * Bolsig+ C2H2 -> C2H2(v2)
e + C2H2 => e + C2H2(v13)		! f8 * Bolsig+ C2H2 -> C2H2(v13)
e + C3H8 => e + C3H8(v1)		! f9 * Bolsig+ C3H8 -> C3H8(v1)
e + C3H8 => e + C3H8(v2)		! f10 * Bolsig+ C3H8 -> C3H8(v2)
e + C3H6 => e + C3H6(v)		! f11 * Bolsig+ C3H6 -> C3H6(v)
e + CH4 => e + CH3 + H		! f12 * Bolsig+ CH4 -> CH3 H
e + CH4(v24) => e + CH3 + H		! f12 * Bolsig+ CH4(v24) -> CH3 H
e + CH4(v13) => e + CH3 + H		! f12 * Bolsig+ CH4(v13) -> CH3 H
e + CH4 => e + CH2 + H2		! f13 * Bolsig+ CH4 -> CH2 H2
e + CH4(v24) => e + CH2 + H2		! f13 * Bolsig+ CH4(v24) -> CH2 H2
e + CH4(v13) => e + CH2 + H2		! f13 * Bolsig+ CH4(v13) -> CH2 H2
e + CH4 => e + CH + H2 + H		! f14 * Bolsig+ CH4 -> CH H2 H
e + CH4(v24) => e + CH + H2 + H		! f14 * Bolsig+ CH4(v24) -> CH H2 H
e + CH4(v13) => e + CH + H2 + H		! f14 * Bolsig+ CH4(v13) -> CH H2 H
e + CH4 => e + C + H2 + H2		! f15 * Bolsig+ CH4 -> C H2 H2
e + CH4(v24) => e + C + H2 + H2		! f15 * Bolsig+ CH4(v24) -> C H2 H2
e + CH4(v13) => e + C + H2 + H2		! f15 * Bolsig+ CH4(v13) -> C H2 H2
e + CH3 => e + CH2 + H		! f16 * Bolsig+ CH3 -> CH2 H
e + CH3 => e + CH + H2		! f17 * Bolsig+ CH3 -> CH H2
e + CH3 => e + C + H2 + H		! f18 * Bolsig+ CH3 -> C H2 H
e + CH2 => e + CH + H		! f19 * Bolsig+ CH2 -> CH H
e + CH2 => e + C + H2		! f20 * Bolsig+ CH2 -> C H2
e + CH2 => e + C + H + H		! f21 * Bolsig+ CH2 -> C H H
e + CH => e + C + H		! f22 * Bolsig+ CH -> C H
e + CH4 => e + e + CH4^+		! f23 * Bolsig+ CH4 -> CH4^+
e + CH4(v24) => e + e + CH4^+		! f23 * Bolsig+ CH4(v24) -> CH4^+
e + CH4(v13) => e + e + CH4^+		! f23 * Bolsig+ CH4(v13) -> CH4^+
e + CH4 => e + e + H + CH3^+		! f24 * Bolsig+ CH4 -> H CH3^+
e + CH4(v24) => e + e + H + CH3^+		! f24 * Bolsig+ CH4(v24) -> H CH3^+
e + CH4(v13) => e + e + H + CH3^+		! f24 * Bolsig+ CH4(v13) -> H CH3^+
e + CH4 => e + e + H2 + CH2^+		! f25 * Bolsig+ CH4 -> H2 CH2^+
e + CH4(v24) => e + e + H2 + CH2^+		! f25 * Bolsig+ CH4(v24) -> H2 CH2^+
e + CH4(v13) => e + e + H2 + CH2^+		! f25 * Bolsig+ CH4(v13) -> H2 CH2^+
e + CH4 => e + e + H2 + H + CH^+		! f26 * Bolsig+ CH4 -> H2 H CH^+
e + CH4(v24) => e + e + H2 + H + CH^+		! f26 * Bolsig+ CH4(v24) -> H2 H CH^+
e + CH4(v13) => e + e + H2 + H + CH^+		! f26 * Bolsig+ CH4(v13) -> H2 H CH^+
e + CH3 => e + e + CH3^+		! f27 * Bolsig+ CH3 -> CH3^+
e + CH3 => e + e + H + CH2^+		! f28 * Bolsig+ CH3 -> H CH2^+
e + CH3 => e + e + H2 + CH^+		! f29 * Bolsig+ CH3 -> H2 CH^+
e + CH2 => e + e + CH2^+		! f30 * Bolsig+ CH2 -> CH2^+
e + CH2 => e + e + H + CH^+		! f31 * Bolsig+ CH2 -> H CH^+
e + CH => e + e + CH^+		! f32 * Bolsig+ CH -> CH^+
e + C2H6 => e + C2H5 + H		! f33 * Bolsig+ C2H6 -> C2H5 H
e + C2H6(v24) => e + C2H5 + H		! f33 * Bolsig+ C2H6(v24) -> C2H5 H
e + C2H6(v13) => e + C2H5 + H		! f33 * Bolsig+ C2H6(v13) -> C2H5 H
e + C2H6 => e + C2H4 + H2		! f34 * Bolsig+ C2H6 -> C2H4 H2
e + C2H6(v24) => e + C2H4 + H2		! f34 * Bolsig+ C2H6(v24) -> C2H4 H2
e + C2H6(v13) => e + C2H4 + H2		! f34 * Bolsig+ C2H6(v13) -> C2H4 H2
e + C2H6 => e + C2H3 + H2 + H		! f35 * Bolsig+ C2H6 -> C2H3 H2 H
e + C2H6(v24) => e + C2H3 + H2 + H		! f35 * Bolsig+ C2H6(v24) -> C2H3 H2 H
e + C2H6(v13) => e + C2H3 + H2 + H		! f35 * Bolsig+ C2H6(v13) -> C2H3 H2 H
e + C2H6 => e + C2H2 + H2 + H2		! f36 * Bolsig+ C2H6 -> C2H2 H2 H2
e + C2H6(v24) => e + C2H2 + H2 + H2		! f36 * Bolsig+ C2H6(v24) -> C2H2 H2 H2
e + C2H6(v13) => e + C2H2 + H2 + H2		! f36 * Bolsig+ C2H6(v13) -> C2H2 H2 H2
e + C2H6 => e + CH4 + CH2		! f37 * Bolsig+ C2H6 -> CH4 CH2
e + C2H6(v24) => e + CH4 + CH2		! f37 * Bolsig+ C2H6(v24) -> CH4 CH2
e + C2H6(v13) => e + CH4 + CH2		! f37 * Bolsig+ C2H6(v13) -> CH4 CH2
e + C2H6 => e + CH3 + CH3		! f38 * Bolsig+ C2H6 -> CH3 CH3
e + C2H6(v24) => e + CH3 + CH3		! f38 * Bolsig+ C2H6(v24) -> CH3 CH3
e + C2H6(v13) => e + CH3 + CH3		! f38 * Bolsig+ C2H6(v13) -> CH3 CH3
e + C2H5 => e + C2H4 + H		! f39 * Bolsig+ C2H5 -> C2H4 H
e + C2H5 => e + C2H3 + H2		! f40 * Bolsig+ C2H5 -> C2H3 H2
e + C2H5 => e + C2H3 + H + H		! f41 * Bolsig+ C2H5 -> C2H3 H H
e + C2H5 => e + C2H2 + H2 + H		! f42 * Bolsig+ C2H5 -> C2H2 H2 H
e + C2H5 => e + CH4 + CH		! f43 * Bolsig+ C2H5 -> CH4 CH
e + C2H5 => e + CH3 + CH2		! f44 * Bolsig+ C2H5 -> CH3 CH2
e + C2H4 => e + C2H3 + H		! f45 * Bolsig+ C2H4 -> C2H3 H
e + C2H4(v1) => e + C2H3 + H		! f45 * Bolsig+ C2H4(v1) -> C2H3 H
e + C2H4(v2) => e + C2H3 + H		! f45 * Bolsig+ C2H4(v2) -> C2H3 H
e + C2H4 => e + C2H2 + H2		! f46 * Bolsig+ C2H4 -> C2H2 H2
e + C2H4(v1) => e + C2H2 + H2		! f46 * Bolsig+ C2H4(v1) -> C2H2 H2
e + C2H4(v2) => e + C2H2 + H2		! f46 * Bolsig+ C2H4(v2) -> C2H2 H2
e + C2H4 => e + C2H2 + H + H		! f47 * Bolsig+ C2H4 -> C2H2 H H
e + C2H4(v1) => e + C2H2 + H + H		! f47 * Bolsig+ C2H4(v1) -> C2H2 H H
e + C2H4(v2) => e + C2H2 + H + H		! f47 * Bolsig+ C2H4(v2) -> C2H2 H H
e + C2H4 => e + CH3 + CH		! f48 * Bolsig+ C2H4 -> CH3 CH
e + C2H4(v1) => e + CH3 + CH		! f48 * Bolsig+ C2H4(v1) -> CH3 CH
e + C2H4(v2) => e + CH3 + CH		! f48 * Bolsig+ C2H4(v2) -> CH3 CH
e + C2H4 => e + CH2 + CH2		! f49 * Bolsig+ C2H4 -> CH2 CH2
e + C2H4(v1) => e + CH2 + CH2		! f49 * Bolsig+ C2H4(v1) -> CH2 CH2
e + C2H4(v2) => e + CH2 + CH2		! f49 * Bolsig+ C2H4(v2) -> CH2 CH2
e + C2H3 => e + C2H2 + H		! f50 * Bolsig+ C2H3 -> C2H2 H
e + C2H3 => e + CH2 + CH		! f51 * Bolsig+ C2H3 -> CH2 CH
e + C2H2 => e + CH + CH		! f52 * Bolsig+ C2H2 -> CH CH
e + C2H2(v5) => e + CH + CH		! f52 * Bolsig+ C2H2(v5) -> CH CH
e + C2H2(v2) => e + CH + CH		! f52 * Bolsig+ C2H2(v2) -> CH CH
e + C2H2(v13) => e + CH + CH		! f52 * Bolsig+ C2H2(v13) -> CH CH
e + C2H6 => e + e + C2H6^+		! f53 * Bolsig+ C2H6 -> C2H6^+
e + C2H6(v24) => e + e + C2H6^+		! f53 * Bolsig+ C2H6(v24) -> C2H6^+
e + C2H6(v13) => e + e + C2H6^+		! f53 * Bolsig+ C2H6(v13) -> C2H6^+
e + C2H6 => e + e + H + C2H5^+		! f54 * Bolsig+ C2H6 -> H C2H5^+
e + C2H6(v24) => e + e + H + C2H5^+		! f54 * Bolsig+ C2H6(v24) -> H C2H5^+
e + C2H6(v13) => e + e + H + C2H5^+		! f54 * Bolsig+ C2H6(v13) -> H C2H5^+
e + C2H6 => e + e + H2 + C2H4^+		! f55 * Bolsig+ C2H6 -> H2 C2H4^+
e + C2H6(v24) => e + e + H2 + C2H4^+		! f55 * Bolsig+ C2H6(v24) -> H2 C2H4^+
e + C2H6(v13) => e + e + H2 + C2H4^+		! f55 * Bolsig+ C2H6(v13) -> H2 C2H4^+
e + C2H6 => e + e + H2 + H + C2H3^+		! f56 * Bolsig+ C2H6 -> H2 H C2H3^+
e + C2H6(v24) => e + e + H2 + H + C2H3^+		! f56 * Bolsig+ C2H6(v24) -> H2 H C2H3^+
e + C2H6(v13) => e + e + H2 + H + C2H3^+		! f56 * Bolsig+ C2H6(v13) -> H2 H C2H3^+
e + C2H6 => e + e + H2 + H2 + C2H2^+		! f57 * Bolsig+ C2H6 -> H2 H2 C2H2^+
e + C2H6(v24) => e + e + H2 + H2 + C2H2^+		! f57 * Bolsig+ C2H6(v24) -> H2 H2 C2H2^+
e + C2H6(v13) => e + e + H2 + H2 + C2H2^+		! f57 * Bolsig+ C2H6(v13) -> H2 H2 C2H2^+
e + C2H6 => e + e + CH3 + CH3^+		! f58 * Bolsig+ C2H6 -> CH3 CH3^+
e + C2H6(v24) => e + e + CH3 + CH3^+		! f58 * Bolsig+ C2H6(v24) -> CH3 CH3^+
e + C2H6(v13) => e + e + CH3 + CH3^+		! f58 * Bolsig+ C2H6(v13) -> CH3 CH3^+
e + C2H6 => e + e + CH4 + CH2^+		! f59 * Bolsig+ C2H6 -> CH4 CH2^+
e + C2H6(v24) => e + e + CH4 + CH2^+		! f59 * Bolsig+ C2H6(v24) -> CH4 CH2^+
e + C2H6(v13) => e + e + CH4 + CH2^+		! f59 * Bolsig+ C2H6(v13) -> CH4 CH2^+
e + C2H5 => e + e + C2H5^+		! f60 * Bolsig+ C2H5 -> C2H5^+
e + C2H5 => e + e + H + C2H4^+		! f61 * Bolsig+ C2H5 -> H C2H4^+
e + C2H5 => e + e + H2 + C2H3^+		! f62 * Bolsig+ C2H5 -> H2 C2H3^+
e + C2H5 => e + e + H2 + H + C2H2^+		! f63 * Bolsig+ C2H5 -> H2 H C2H2^+
e + C2H5 => e + e + CH2 + CH3^+		! f64 * Bolsig+ C2H5 -> CH2 CH3^+
e + C2H5 => e + e + CH3 + CH2^+		! f65 * Bolsig+ C2H5 -> CH3 CH2^+
e + C2H5 => e + e + CH4 + CH^+		! f66 * Bolsig+ C2H5 -> CH4 CH^+
e + C2H4 => e + e + C2H4^+		! f67 * Bolsig+ C2H4 -> C2H4^+
e + C2H4(v1) => e + e + C2H4^+		! f67 * Bolsig+ C2H4(v1) -> C2H4^+
e + C2H4(v2) => e + e + C2H4^+		! f67 * Bolsig+ C2H4(v2) -> C2H4^+
e + C2H4 => e + e + H + C2H3^+		! f68 * Bolsig+ C2H4 -> H C2H3^+
e + C2H4(v1) => e + e + H + C2H3^+		! f68 * Bolsig+ C2H4(v1) -> H C2H3^+
e + C2H4(v2) => e + e + H + C2H3^+		! f68 * Bolsig+ C2H4(v2) -> H C2H3^+
e + C2H4 => e + e + CH + CH3^+		! f69 * Bolsig+ C2H4 -> CH CH3^+
e + C2H4(v1) => e + e + CH + CH3^+		! f69 * Bolsig+ C2H4(v1) -> CH CH3^+
e + C2H4(v2) => e + e + CH + CH3^+		! f69 * Bolsig+ C2H4(v2) -> CH CH3^+
e + C2H4 => e + e + CH2 + CH2^+		! f70 * Bolsig+ C2H4 -> CH2 CH2^+
e + C2H4(v1) => e + e + CH2 + CH2^+		! f70 * Bolsig+ C2H4(v1) -> CH2 CH2^+
e + C2H4(v2) => e + e + CH2 + CH2^+		! f70 * Bolsig+ C2H4(v2) -> CH2 CH2^+
e + C2H4 => e + e + CH3 + CH^+		! f71 * Bolsig+ C2H4 -> CH3 CH^+
e + C2H4(v1) => e + e + CH3 + CH^+		! f71 * Bolsig+ C2H4(v1) -> CH3 CH^+
e + C2H4(v2) => e + e + CH3 + CH^+		! f71 * Bolsig+ C2H4(v2) -> CH3 CH^+
e + C2H3 => e + e + C2H3^+		! f72 * Bolsig+ C2H3 -> C2H3^+
e + C2H3 => e + e + H + C2H2^+		! f73 * Bolsig+ C2H3 -> H C2H2^+
e + C2H3 => e + e + CH + CH2^+		! f74 * Bolsig+ C2H3 -> CH CH2^+
e + C2H3 => e + e + CH2 + CH^+		! f75 * Bolsig+ C2H3 -> CH2 CH^+
e + C2H3 => e + e + C2H2 + H^+		! f76 * Bolsig+ C2H3 -> C2H2 H^+
e + C2H2 => e + e + C2H2^+		! f77 * Bolsig+ C2H2 -> C2H2^+
e + C2H2(v5) => e + e + C2H2^+		! f77 * Bolsig+ C2H2(v5) -> C2H2^+
e + C2H2(v2) => e + e + C2H2^+		! f77 * Bolsig+ C2H2(v2) -> C2H2^+
e + C2H2(v13) => e + e + C2H2^+		! f77 * Bolsig+ C2H2(v13) -> C2H2^+
e + C2H2 => e + e + CH + CH^+		! f78 * Bolsig+ C2H2 -> CH CH^+
e + C2H2(v5) => e + e + CH + CH^+		! f78 * Bolsig+ C2H2(v5) -> CH CH^+
e + C2H2(v2) => e + e + CH + CH^+		! f78 * Bolsig+ C2H2(v2) -> CH CH^+
e + C2H2(v13) => e + e + CH + CH^+		! f78 * Bolsig+ C2H2(v13) -> CH CH^+
e + C3H8 => e + C3H7 + H		! f79 * Bolsig+ C3H8 -> C3H7 H
e + C3H8(v1) => e + C3H7 + H		! f79 * Bolsig+ C3H8(v1) -> C3H7 H
e + C3H8(v2) => e + C3H7 + H		! f79 * Bolsig+ C3H8(v2) -> C3H7 H
e + C3H8 => e + C3H6 + H2		! f80 * Bolsig+ C3H8 -> C3H6 H2
e + C3H8(v1) => e + C3H6 + H2		! f80 * Bolsig+ C3H8(v1) -> C3H6 H2
e + C3H8(v2) => e + C3H6 + H2		! f80 * Bolsig+ C3H8(v2) -> C3H6 H2
e + C3H7 => e + C3H6 + H		! f81 * Bolsig+ C3H7 -> C3H6 H
e + C3H8 => e + e + C3H8^+		! f82 * Bolsig+ C3H8 -> C3H8^+
e + C3H8(v1) => e + e + C3H8^+		! f82 * Bolsig+ C3H8(v1) -> C3H8^+
e + C3H8(v2) => e + e + C3H8^+		! f82 * Bolsig+ C3H8(v2) -> C3H8^+
e + C3H8 => e + e + H + C3H7^+		! f83 * Bolsig+ C3H8 -> H C3H7^+
e + C3H8(v1) => e + e + H + C3H7^+		! f83 * Bolsig+ C3H8(v1) -> H C3H7^+
e + C3H8(v2) => e + e + H + C3H7^+		! f83 * Bolsig+ C3H8(v2) -> H C3H7^+
e + C3H8 => e + e + H2 + C3H6^+		! f84 * Bolsig+ C3H8 -> H2 C3H6^+
e + C3H8(v1) => e + e + H2 + C3H6^+		! f84 * Bolsig+ C3H8(v1) -> H2 C3H6^+
e + C3H8(v2) => e + e + H2 + C3H6^+		! f84 * Bolsig+ C3H8(v2) -> H2 C3H6^+
e + C3H7 => e + e + C3H7^+		! f85 * Bolsig+ C3H7 -> C3H7^+
e + C3H7 => e + e + H + C3H6^+		! f86 * Bolsig+ C3H7 -> H C3H6^+
e + C3H6 => e + e + C3H6^+		! f87 * Bolsig+ C3H6 -> C3H6^+
e + C3H6(v) => e + e + C3H6^+		! f87 * Bolsig+ C3H6(v) -> C3H6^+
e + C3H6 => e + C2H2 + CH4		! f88 * Bolsig+ C3H6 -> C2H2 CH4
e + C3H6(v) => e + C2H2 + CH4		! f88 * Bolsig+ C3H6(v) -> C2H2 CH4
e + C3H6 => e + e + C2H2 + CH4^+		! f89 * Bolsig+ C3H6 -> C2H2 CH4^+
e + C3H6(v) => e + e + C2H2 + CH4^+		! f89 * Bolsig+ C3H6(v) -> C2H2 CH4^+

# Ion Recombination Reaction
e + e + CH^+ => e + CH		! f90 * 1.00d0
e + e + CH2^+ => e + CH2		! f91 * 1.00d0
e + e + CH3^+ => e + CH3		! f92 * 1.00d0
e + e + CH4^+ => e + CH4		! f93 * 1.00d0
e + e + C2H2^+ => e + C2H2		! f94 * 1.00d0
e + e + C2H3^+ => e + C2H3		! f95 * 1.00d0
e + e + C2H4^+ => e + C2H4		! f96 * 1.00d0
e + e + C2H5^+ => e + C2H5		! f97 * 1.00d0
e + e + C2H6^+ => e + C2H6		! f98 * 1.00d0
e + e + C3H6^+ => e + C3H6		! f99 * 1.00d0
e + e + C3H7^+ => e + C3H7		! f100 * 1.00d0
e + e + C3H8^+ => e + C3H8		! f101 * 1.00d0

# Gas Phase Reaction
e + CH4^+ => CH3 + H		! f102 * 1.18d-08 * (300./Tgas)**0.5
e + CH4^+ => CH2 + H + H		! f103 * 2.42d-08 * (300./Tgas)**0.5
e + CH4^+ => CH + H2 + H		! f104 * 1.41d-08 * (300./Tgas)**0.5
e + CH3^+ => CH2 + H		! f105 * 2.25d-08 * (300./Tgas)**0.5
e + CH3^+ => CH + H2		! f106 * 7.88d-09 * (300./Tgas)**0.5
e + CH3^+ => CH + H + H		! f107 * 9.00d-09 * (300./Tgas)**0.5
e + CH3^+ => C + H2 + H		! f108 * 1.69d-08 * (300./Tgas)**0.5
e + CH2^+ => CH + H		! f109 * 1.00d-08 * (300./Tgas)**0.5
e + CH2^+ => C + H2		! f110 * 4.82d-09 * (300./Tgas)**0.5
e + CH2^+ => C + H + H		! f111 * 2.53d-08 * (300./Tgas)**0.5
e + CH^+ => C + H		! f112 * 3.23d-08 * (300./Tgas)**0.42
e + C2H6^+ => C2H5 + H		! f113 * 2.19d-08 * (300./Tgas)**0.71
e + C2H6^+ => C2H4 + H + H		! f114 * 3.36d-08 * (300./Tgas)**0.71
e + C2H5^+ => C2H4 + H		! f115 * 7.70d-09 * (300./Tgas)**0.71
e + C2H5^+ => C2H3 + H + H		! f116 * 1.92d-08 * (300./Tgas)**0.71
e + C2H5^+ => C2H2 + H2 + H		! f117 * 1.60d-08 * (300./Tgas)**0.71
e + C2H5^+ => C2H2 + H + H + H		! f118 * 8.98d-09 * (300./Tgas)**0.71
e + C2H5^+ => CH3 + CH2		! f119 * 9.62d-09 * (300./Tgas)**0.71
e + C2H4^+ => C2H3 + H		! f120 * 8.29d-09 * (300./Tgas)**0.71
e + C2H4^+ => C2H2 + H + H		! f121 * 3.43d-08 * (300./Tgas)**0.71
e + C2H3^+ => C2H2 + H		! f122 * 1.34d-08 * (300./Tgas)**0.71
e + C2H2^+ => CH + CH		! f123 * 4.87d-09 * (300./Tgas)**0.71
e + H2^+ => H + H		! f124 * 3.17d21/(6.022d23 * Te**4.5)
e + H3^+ => H + H2		! f125 * 3.17d21/(6.022d23 * Te**4.5)
H2 + H2^+ => H + H3^+		! f126 * 2.11d-09
C2H6 + CH4^+ => CH4 + H2 + C2H4^+		! f127 * 1.91d-9
C2H6(v24) + CH4^+ => CH4 + H2 + C2H4^+		! f127 * 1.91d-9
C2H6(v13) + CH4^+ => CH4 + H2 + C2H4^+		! f127 * 1.91d-9
C2H4 + CH4^+ => CH3 + C2H5^+		! f128 * 4.23d-10