ELEMENTS
e C H
END

SPECIES
e C CH CH^+ CH2 CH2^+ CH3 CH3^+ CH4 CH4(v13) CH4(v24) CH4^+ C2H2 C2H2(v13) C2H2(v2) C2H2(v5) C2H2^+ C2H3 C2H3^+ C2H4 C2H4(v1) C2H4(v2) C2H4^+ C2H5 C2H5^+
C2H6 C2H6(v13) C2H6(v24) C2H6^+ C3H5 C3H6 C3H6(v) C3H6^+ C3H7 C3H7^+ C3H8 C3H8(v1) C3H8(v2) C3H8^+ C4H9 C4H9H C2H C5H12 H H2 H2^+ H3^+ H^+
END

BOLSIG
CH CH2 CH3 CH4 CH4(v13) CH4(v24) C2H2 C2H2(v13) C2H2(v2) C2H2(v5) C2H3 C2H4 C2H4(v1) C2H4(v2) C2H5 C2H6 C2H6(v13) C2H6(v24) C3H6 C3H6(v) C3H7 C3H8 C3H8(v1) C3H8(v2)
END

REACTIONS
# Gas Constant
$ double precision, parameter :: R = 8.314d-3

# Compensation Parameters
$ double precision, parameter :: f0 = 1.4107d-8
$ double precision, parameter :: f1 = 5.1266d-6
$ double precision, parameter :: f2 = 2.1800d-2
$ double precision, parameter :: f3 = 7.5015d-2
$ double precision, parameter :: f4 = 2.1488d-6
$ double precision, parameter :: f5 = 4.9153d-7
$ double precision, parameter :: f6 = 8.3988d+2
$ double precision, parameter :: f7 = 6.7949d-7
$ double precision, parameter :: f8 = 4.2282d-8
$ double precision, parameter :: f9 = 1.5593d0
$ double precision, parameter :: f10 = 2.5489d0
$ double precision, parameter :: f11 = 1.0272d-1
$ double precision, parameter :: f12 = 3.7312d-8
$ double precision, parameter :: f13 = 9.7276d-3
$ double precision, parameter :: f14 = 1.2663d-4
$ double precision, parameter :: f15 = 1.6397d+1
$ double precision, parameter :: f16 = 2.4287d-5
$ double precision, parameter :: f17 = 7.9065d-4
$ double precision, parameter :: f18 = 1.3425d-7
$ double precision, parameter :: f19 = 3.9416d-4
$ double precision, parameter :: f20 = 6.8140d-6
$ double precision, parameter :: f21 = 1.6729d-2
$ double precision, parameter :: f22 = 1.5377d-4
$ double precision, parameter :: f23 = 2.8520d0
$ double precision, parameter :: f24 = 8.3636d-2
$ double precision, parameter :: f25 = 5.1414d-3
$ double precision, parameter :: f26 = 1.2926d-1
$ double precision, parameter :: f27 = 1.3005d-6
$ double precision, parameter :: f28 = 3.9960d-4
$ double precision, parameter :: f29 = 6.7444d-4
$ double precision, parameter :: f30 = 6.4032d+1
$ double precision, parameter :: f31 = 1.4093d0
$ double precision, parameter :: f32 = 1.0645d-1
$ double precision, parameter :: f33 = 1.4012d-7
$ double precision, parameter :: f34 = 9.8974d0
$ double precision, parameter :: f35 = 5.0080d+1
$ double precision, parameter :: f36 = 8.4197d+1
$ double precision, parameter :: f37 = 6.7649d-4
$ double precision, parameter :: f38 = 3.4027d-1
$ double precision, parameter :: f39 = 6.9965d-3
$ double precision, parameter :: f40 = 9.8407d-4
$ double precision, parameter :: f41 = 1.3352d-5
$ double precision, parameter :: f42 = 8.9826d-7
$ double precision, parameter :: f43 = 8.2506d+2
$ double precision, parameter :: f44 = 2.0892d-5
$ double precision, parameter :: f45 = 1.3765d-1
$ double precision, parameter :: f46 = 3.8767d-6
$ double precision, parameter :: f47 = 5.8447d-1
$ double precision, parameter :: f48 = 7.6685d-2
$ double precision, parameter :: f49 = 9.4608d-7
$ double precision, parameter :: f50 = 1.6131d-7
$ double precision, parameter :: f51 = 2.7935d-1
$ double precision, parameter :: f52 = 3.4673d-6
$ double precision, parameter :: f53 = 8.4499d+2
$ double precision, parameter :: f54 = 2.3530d+1
$ double precision, parameter :: f55 = 6.4409d-8
$ double precision, parameter :: f56 = 5.7862d-3
$ double precision, parameter :: f57 = 2.7084d-6
$ double precision, parameter :: f58 = 1.3295d-2
$ double precision, parameter :: f59 = 1.0543d-7
$ double precision, parameter :: f60 = 1.0448d+2
$ double precision, parameter :: f61 = 2.3693d-3
$ double precision, parameter :: f62 = 1.2642d-5
$ double precision, parameter :: f63 = 2.5782d+1
$ double precision, parameter :: f64 = 6.0821d-8
$ double precision, parameter :: f65 = 2.5006d+1
$ double precision, parameter :: f66 = 1.5490d-3
$ double precision, parameter :: f67 = 2.4790d-4
$ double precision, parameter :: f68 = 2.0943d-2
$ double precision, parameter :: f69 = 1.1515d-2
$ double precision, parameter :: f70 = 1.3359d-8
$ double precision, parameter :: f71 = 2.8944d0
$ double precision, parameter :: f72 = 6.8184d-2
$ double precision, parameter :: f73 = 5.6990d0
$ double precision, parameter :: f74 = 2.2139d0
$ double precision, parameter :: f75 = 3.3964d-7
$ double precision, parameter :: f76 = 2.3184d-5
$ double precision, parameter :: f77 = 1.0892d-5
$ double precision, parameter :: f78 = 2.5291d+1
$ double precision, parameter :: f79 = 4.9484d-1
$ double precision, parameter :: f80 = 2.4732d-8
$ double precision, parameter :: f81 = 2.0329d-6
$ double precision, parameter :: f82 = 4.3642d-2
$ double precision, parameter :: f83 = 2.5620d-7
$ double precision, parameter :: f84 = 4.9722d+1
$ double precision, parameter :: f85 = 3.6297d-1
$ double precision, parameter :: f86 = 5.1766d-3
$ double precision, parameter :: f87 = 3.4963d-3
$ double precision, parameter :: f88 = 1.5109d0
$ double precision, parameter :: f89 = 2.2501d0
$ double precision, parameter :: f90 = 2.7415d+1
$ double precision, parameter :: f91 = 3.0903d-1
$ double precision, parameter :: f92 = 1.3291d-3
$ double precision, parameter :: f93 = 6.8351d+1
$ double precision, parameter :: f94 = 2.8672d-4
$ double precision, parameter :: f95 = 6.1175d-8
$ double precision, parameter :: f96 = 1.0460d+1
$ double precision, parameter :: f97 = 5.5336d-1
$ double precision, parameter :: f98 = 1.2778d-5
$ double precision, parameter :: f99 = 6.8561d-1
$ double precision, parameter :: f100 = 2.0743d+2
$ double precision, parameter :: f101 = 1.7497d-2
$ double precision, parameter :: f102 = 2.6249d-2
$ double precision, parameter :: f103 = 1.2090d-3
$ double precision, parameter :: f104 = 1.6099d-3
$ double precision, parameter :: f105 = 1.5588d-3
$ double precision, parameter :: f106 = 6.5058d-2
$ double precision, parameter :: f107 = 9.1914d-3
$ double precision, parameter :: f108 = 1.6572d+2
$ double precision, parameter :: f109 = 4.8557d-8
$ double precision, parameter :: f110 = 6.6337d-8
$ double precision, parameter :: f111 = 1.2008d-7
$ double precision, parameter :: f112 = 3.7883d-5
$ double precision, parameter :: f113 = 2.7477d-3
$ double precision, parameter :: f114 = 1.5653d-6
$ double precision, parameter :: f115 = 3.8108d-2
$ double precision, parameter :: f116 = 1.2629d-3
$ double precision, parameter :: f117 = 1.2800d-1
$ double precision, parameter :: f118 = 1.2487d-8
$ double precision, parameter :: f119 = 1.4133d-6
$ double precision, parameter :: f120 = 9.0530d+2
$ double precision, parameter :: f121 = 1.2720d-5
$ double precision, parameter :: f122 = 6.3243d-3
$ double precision, parameter :: f123 = 1.0083d+2
$ double precision, parameter :: f124 = 2.4176d-8
$ double precision, parameter :: f125 = 4.3269d+1
$ double precision, parameter :: f126 = 2.9974d-3
$ double precision, parameter :: f127 = 2.6840d-3
$ double precision, parameter :: f128 = 1.7335d-6
$ double precision, parameter :: f129 = 1.6763d0
$ double precision, parameter :: f130 = 8.4586d-1
$ double precision, parameter :: f131 = 6.8132d-4
$ double precision, parameter :: f132 = 9.0438d-2
$ double precision, parameter :: f133 = 4.5118d-7
$ double precision, parameter :: f134 = 1.5270d-2
$ double precision, parameter :: f135 = 1.4866d-2
$ double precision, parameter :: f136 = 3.0078d-3
$ double precision, parameter :: f137 = 4.3178d-4
$ double precision, parameter :: f138 = 9.8405d-2
$ double precision, parameter :: f139 = 4.3353d-8
$ double precision, parameter :: f140 = 1.5556d-3
$ double precision, parameter :: f141 = 1.2000d+1
$ double precision, parameter :: f142 = 2.5129d-4
$ double precision, parameter :: f143 = 1.2327d-4
$ double precision, parameter :: f144 = 1.0475d-5
$ double precision, parameter :: f145 = 2.5879d-4
$ double precision, parameter :: f146 = 7.9026d-3
$ double precision, parameter :: f147 = 8.2718d+1
$ double precision, parameter :: f148 = 2.8287d+1
$ double precision, parameter :: f149 = 1.6632d-6
$ double precision, parameter :: f150 = 1.7188d+1
$ double precision, parameter :: f151 = 6.2164d-5
$ double precision, parameter :: f152 = 1.2612d-2
$ double precision, parameter :: f153 = 4.8265d+2
$ double precision, parameter :: f154 = 7.3929d0
$ double precision, parameter :: f155 = 4.9926d-2
$ double precision, parameter :: f156 = 5.9241d-4
$ double precision, parameter :: f157 = 1.3759d-6
$ double precision, parameter :: f158 = 4.3383d-1
$ double precision, parameter :: f159 = 6.0220d-1
$ double precision, parameter :: f160 = 1.9852d-5
$ double precision, parameter :: f161 = 3.7980d-8
$ double precision, parameter :: f162 = 5.7444d-5
$ double precision, parameter :: f163 = 2.8479d+1
$ double precision, parameter :: f164 = 4.8555d-6
$ double precision, parameter :: f165 = 1.1726d-1
$ double precision, parameter :: f166 = 8.7314d-8
$ double precision, parameter :: f167 = 8.6906d-7
$ double precision, parameter :: f168 = 6.6725d0
$ double precision, parameter :: f169 = 6.2605d-8
$ double precision, parameter :: f170 = 1.9482d-7
$ double precision, parameter :: f171 = 1.7721d-1
$ double precision, parameter :: f172 = 5.9824d+2
$ double precision, parameter :: f173 = 2.0050d-7
$ double precision, parameter :: f174 = 5.5152d+1
$ double precision, parameter :: f175 = 1.3958d-4
$ double precision, parameter :: f176 = 1.7002d-4
$ double precision, parameter :: f177 = 6.4678d+2
$ double precision, parameter :: f178 = 5.0080d-8
$ double precision, parameter :: f179 = 6.0223d-6
$ double precision, parameter :: f180 = 1.4086d+2
$ double precision, parameter :: f181 = 9.5852d-4
$ double precision, parameter :: f182 = 5.2145d-7
$ double precision, parameter :: f183 = 1.3938d-7
$ double precision, parameter :: f184 = 3.9837d-4
$ double precision, parameter :: f185 = 2.1573d0
$ double precision, parameter :: f186 = 2.8184d-3
$ double precision, parameter :: f187 = 7.1795d-1
$ double precision, parameter :: f188 = 5.3071d-5
$ double precision, parameter :: f189 = 1.1692d-6
$ double precision, parameter :: f190 = 2.6060d-7
$ double precision, parameter :: f191 = 5.2213d0
$ double precision, parameter :: f192 = 3.1785d-3
$ double precision, parameter :: f193 = 5.5597d-4
$ double precision, parameter :: f194 = 3.1592d-2
$ double precision, parameter :: f195 = 1.5349d-7
$ double precision, parameter :: f196 = 2.5220d+2
$ double precision, parameter :: f197 = 1.6891d-3
$ double precision, parameter :: f198 = 2.5041d-5
$ double precision, parameter :: f199 = 7.1896d-3
$ double precision, parameter :: f200 = 3.1122d0
$ double precision, parameter :: f201 = 7.5629d-6
$ double precision, parameter :: f202 = 5.2093d+2
$ double precision, parameter :: f203 = 1.2519d-6
$ double precision, parameter :: f204 = 6.2885d-8
$ double precision, parameter :: f205 = 1.7722d-4
$ double precision, parameter :: f206 = 4.8589d-6
$ double precision, parameter :: f207 = 4.2417d-6
$ double precision, parameter :: f208 = 2.1087d-2
$ double precision, parameter :: f209 = 5.6845d-1
$ double precision, parameter :: f210 = 2.2492d-2
$ double precision, parameter :: f211 = 2.1747d-1
$ double precision, parameter :: f212 = 4.0826d-6
$ double precision, parameter :: f213 = 1.0937d+2
$ double precision, parameter :: f214 = 1.3233d-8
$ double precision, parameter :: f215 = 6.9583d-8
$ double precision, parameter :: f216 = 2.5168d-1
$ double precision, parameter :: f217 = 6.7395d-6
$ double precision, parameter :: f218 = 1.9656d0
$ double precision, parameter :: f219 = 9.8659d-4
$ double precision, parameter :: f220 = 2.0329d+2
$ double precision, parameter :: f221 = 7.8543d-7
$ double precision, parameter :: f222 = 1.7211d+1
$ double precision, parameter :: f223 = 1.5770d-5
$ double precision, parameter :: f224 = 1.1942d+1
$ double precision, parameter :: f225 = 2.2382d+1
$ double precision, parameter :: f226 = 8.7437d+2
$ double precision, parameter :: f227 = 5.3125d-1
$ double precision, parameter :: f228 = 1.6847d-4
$ double precision, parameter :: f229 = 4.3938d-6
$ double precision, parameter :: f230 = 1.1279d-6
$ double precision, parameter :: f231 = 9.0942d-2
$ double precision, parameter :: f232 = 2.9405d-6
$ double precision, parameter :: f233 = 4.1538d-7
$ double precision, parameter :: f234 = 1.5412d-4
$ double precision, parameter :: f235 = 1.1045d+1
$ double precision, parameter :: f236 = 1.4715d-1
$ double precision, parameter :: f237 = 3.8949d-3
$ double precision, parameter :: f238 = 3.6657d-1
$ double precision, parameter :: f239 = 2.6326d+2
$ double precision, parameter :: f240 = 5.4237d-8
$ double precision, parameter :: f241 = 1.4421d+2
$ double precision, parameter :: f242 = 1.0951d-2
$ double precision, parameter :: f243 = 1.6731d-5
$ double precision, parameter :: f244 = 2.9822d0
$ double precision, parameter :: f245 = 1.1680d-1
$ double precision, parameter :: f246 = 1.0515d-4
$ double precision, parameter :: f247 = 3.8988d0
$ double precision, parameter :: f248 = 6.8120d-1
$ double precision, parameter :: f249 = 6.4688d-3
$ double precision, parameter :: f250 = 8.7387d-8
$ double precision, parameter :: f251 = 1.2898d+2
$ double precision, parameter :: f252 = 1.4451d-1
$ double precision, parameter :: f253 = 2.4073d-5
$ double precision, parameter :: f254 = 2.0981d-3
$ double precision, parameter :: f255 = 1.6176d-7
$ double precision, parameter :: f256 = 6.3903d+1
$ double precision, parameter :: f257 = 1.4743d-7
$ double precision, parameter :: f258 = 2.0898d-3
$ double precision, parameter :: f259 = 1.1455d-5
$ double precision, parameter :: f260 = 1.7628d-5
$ double precision, parameter :: f261 = 8.5352d-6
$ double precision, parameter :: f262 = 5.8512d0
$ double precision, parameter :: f263 = 9.7783d-1
$ double precision, parameter :: f264 = 6.8999d-7
$ double precision, parameter :: f265 = 5.8047d-7
$ double precision, parameter :: f266 = 1.2709d+1
$ double precision, parameter :: f267 = 3.6536d+1
$ double precision, parameter :: f268 = 1.3151d-4
$ double precision, parameter :: f269 = 4.3824d-2
$ double precision, parameter :: f270 = 3.9108d-1
$ double precision, parameter :: f271 = 6.0508d-2
$ double precision, parameter :: f272 = 3.2475d-2
$ double precision, parameter :: f273 = 3.3115d-3
$ double precision, parameter :: f274 = 1.7348d-7
$ double precision, parameter :: f275 = 5.3562d-1
$ double precision, parameter :: f276 = 7.0928d-3
$ double precision, parameter :: f277 = 1.7158d0
$ double precision, parameter :: f278 = 2.8369d-1
$ double precision, parameter :: f279 = 6.0083d-7
$ double precision, parameter :: f280 = 5.7491d-8
$ double precision, parameter :: f281 = 2.9610d-3
$ double precision, parameter :: f282 = 8.9630d+1
$ double precision, parameter :: f283 = 2.6981d-6
$ double precision, parameter :: f284 = 1.1225d-5
$ double precision, parameter :: f285 = 5.4484d+1
$ double precision, parameter :: f286 = 6.6272d-2
$ double precision, parameter :: f287 = 1.0105d-2
$ double precision, parameter :: f288 = 1.1416d0
$ double precision, parameter :: f289 = 3.0316d-7
$ double precision, parameter :: f290 = 2.1291d+2
$ double precision, parameter :: f291 = 2.8258d+1
$ double precision, parameter :: f292 = 8.4199d-5
$ double precision, parameter :: f293 = 1.7303d0
$ double precision, parameter :: f294 = 4.8012d-5
$ double precision, parameter :: f295 = 4.0639d-7
$ double precision, parameter :: f296 = 5.8455d0
$ double precision, parameter :: f297 = 3.2441d+1
$ double precision, parameter :: f298 = 3.1799d-1
$ double precision, parameter :: f299 = 9.7234d-8
$ double precision, parameter :: f300 = 2.3139d-7
$ double precision, parameter :: f301 = 1.8571d+2
$ double precision, parameter :: f302 = 5.2997d-7
$ double precision, parameter :: f303 = 1.2378d-1
$ double precision, parameter :: f304 = 3.1843d-2
$ double precision, parameter :: f305 = 4.2321d-6
$ double precision, parameter :: f306 = 1.2837d-3
$ double precision, parameter :: f307 = 4.9545d-3
$ double precision, parameter :: f308 = 2.4973d-5
$ double precision, parameter :: f309 = 2.4286d-2
$ double precision, parameter :: f310 = 4.8183d-8
$ double precision, parameter :: f311 = 4.4887d-3
$ double precision, parameter :: f312 = 2.9208d0
$ double precision, parameter :: f313 = 2.8584d-2
$ double precision, parameter :: f314 = 1.1214d-8
$ double precision, parameter :: f315 = 1.5723d+1

# Electron Collision Reaction
e + CH4 => e + CH4(v24)		! f0 * Bolsig+ CH4 -> CH4(v24)
e + CH4 => e + CH4(v13)		! f1 * Bolsig+ CH4 -> CH4(v13)
e + C2H6 => e + C2H6(v24)		! f2 * Bolsig+ C2H6 -> C2H6(v24)
e + C2H6 => e + C2H6(v13)		! f3 * Bolsig+ C2H6 -> C2H6(v13)
e + C2H4 => e + C2H4(v1)		! f4 * Bolsig+ C2H4 -> C2H4(v1)
e + C2H4 => e + C2H4(v2)		! f5 * Bolsig+ C2H4 -> C2H4(v2)
e + C2H2 => e + C2H2(v5)		! f6 * Bolsig+ C2H2 -> C2H2(v5)
e + C2H2 => e + C2H2(v2)		! f7 * Bolsig+ C2H2 -> C2H2(v2)
e + C2H2 => e + C2H2(v13)		! f8 * Bolsig+ C2H2 -> C2H2(v13)
e + C3H8 => e + C3H8(v1)		! f9 * Bolsig+ C3H8 -> C3H8(v1)
e + C3H8 => e + C3H8(v2)		! f10 * Bolsig+ C3H8 -> C3H8(v2)
e + C3H6 => e + C3H6(v)		! f11 * Bolsig+ C3H6 -> C3H6(v)
e + CH4 => e + CH3 + H		! f12 * Bolsig+ CH4 -> CH3 H
e + CH4(v24) => e + CH3 + H		! f12 * Bolsig+ CH4(v24) -> CH3 H
e + CH4(v13) => e + CH3 + H		! f12 * Bolsig+ CH4(v13) -> CH3 H
e + CH4 => e + CH2 + H2		! f13 * Bolsig+ CH4 -> CH2 H2
e + CH4(v24) => e + CH2 + H2		! f13 * Bolsig+ CH4(v24) -> CH2 H2
e + CH4(v13) => e + CH2 + H2		! f13 * Bolsig+ CH4(v13) -> CH2 H2
e + CH4 => e + CH + H2 + H		! f14 * Bolsig+ CH4 -> CH H2 H
e + CH4(v24) => e + CH + H2 + H		! f14 * Bolsig+ CH4(v24) -> CH H2 H
e + CH4(v13) => e + CH + H2 + H		! f14 * Bolsig+ CH4(v13) -> CH H2 H
e + CH4 => e + C + H2 + H2		! f15 * Bolsig+ CH4 -> C H2 H2
e + CH4(v24) => e + C + H2 + H2		! f15 * Bolsig+ CH4(v24) -> C H2 H2
e + CH4(v13) => e + C + H2 + H2		! f15 * Bolsig+ CH4(v13) -> C H2 H2
e + CH3 => e + CH2 + H		! f16 * Bolsig+ CH3 -> CH2 H
e + CH3 => e + CH + H2		! f17 * Bolsig+ CH3 -> CH H2
e + CH3 => e + C + H2 + H		! f18 * Bolsig+ CH3 -> C H2 H
e + CH2 => e + CH + H		! f19 * Bolsig+ CH2 -> CH H
e + CH2 => e + C + H2		! f20 * Bolsig+ CH2 -> C H2
e + CH2 => e + C + H + H		! f21 * Bolsig+ CH2 -> C H H
e + CH => e + C + H		! f22 * Bolsig+ CH -> C H
e + CH4 => e + e + CH4^+		! f23 * Bolsig+ CH4 -> CH4^+
e + CH4(v24) => e + e + CH4^+		! f23 * Bolsig+ CH4(v24) -> CH4^+
e + CH4(v13) => e + e + CH4^+		! f23 * Bolsig+ CH4(v13) -> CH4^+
e + CH4 => e + e + H + CH3^+		! f24 * Bolsig+ CH4 -> H CH3^+
e + CH4(v24) => e + e + H + CH3^+		! f24 * Bolsig+ CH4(v24) -> H CH3^+
e + CH4(v13) => e + e + H + CH3^+		! f24 * Bolsig+ CH4(v13) -> H CH3^+
e + CH4 => e + e + H2 + CH2^+		! f25 * Bolsig+ CH4 -> H2 CH2^+
e + CH4(v24) => e + e + H2 + CH2^+		! f25 * Bolsig+ CH4(v24) -> H2 CH2^+
e + CH4(v13) => e + e + H2 + CH2^+		! f25 * Bolsig+ CH4(v13) -> H2 CH2^+
e + CH4 => e + e + H2 + H + CH^+		! f26 * Bolsig+ CH4 -> H2 H CH^+
e + CH4(v24) => e + e + H2 + H + CH^+		! f26 * Bolsig+ CH4(v24) -> H2 H CH^+
e + CH4(v13) => e + e + H2 + H + CH^+		! f26 * Bolsig+ CH4(v13) -> H2 H CH^+
e + CH3 => e + e + CH3^+		! f27 * Bolsig+ CH3 -> CH3^+
e + CH3 => e + e + H + CH2^+		! f28 * Bolsig+ CH3 -> H CH2^+
e + CH3 => e + e + H2 + CH^+		! f29 * Bolsig+ CH3 -> H2 CH^+
e + CH2 => e + e + CH2^+		! f30 * Bolsig+ CH2 -> CH2^+
e + CH2 => e + e + H + CH^+		! f31 * Bolsig+ CH2 -> H CH^+
e + CH => e + e + CH^+		! f32 * Bolsig+ CH -> CH^+
e + C2H6 => e + C2H5 + H		! f33 * Bolsig+ C2H6 -> C2H5 H
e + C2H6(v24) => e + C2H5 + H		! f33 * Bolsig+ C2H6(v24) -> C2H5 H
e + C2H6(v13) => e + C2H5 + H		! f33 * Bolsig+ C2H6(v13) -> C2H5 H
e + C2H6 => e + C2H4 + H2		! f34 * Bolsig+ C2H6 -> C2H4 H2
e + C2H6(v24) => e + C2H4 + H2		! f34 * Bolsig+ C2H6(v24) -> C2H4 H2
e + C2H6(v13) => e + C2H4 + H2		! f34 * Bolsig+ C2H6(v13) -> C2H4 H2
e + C2H6 => e + C2H3 + H2 + H		! f35 * Bolsig+ C2H6 -> C2H3 H2 H
e + C2H6(v24) => e + C2H3 + H2 + H		! f35 * Bolsig+ C2H6(v24) -> C2H3 H2 H
e + C2H6(v13) => e + C2H3 + H2 + H		! f35 * Bolsig+ C2H6(v13) -> C2H3 H2 H
e + C2H6 => e + C2H2 + H2 + H2		! f36 * Bolsig+ C2H6 -> C2H2 H2 H2
e + C2H6(v24) => e + C2H2 + H2 + H2		! f36 * Bolsig+ C2H6(v24) -> C2H2 H2 H2
e + C2H6(v13) => e + C2H2 + H2 + H2		! f36 * Bolsig+ C2H6(v13) -> C2H2 H2 H2
e + C2H6 => e + CH4 + CH2		! f37 * Bolsig+ C2H6 -> CH4 CH2
e + C2H6(v24) => e + CH4 + CH2		! f37 * Bolsig+ C2H6(v24) -> CH4 CH2
e + C2H6(v13) => e + CH4 + CH2		! f37 * Bolsig+ C2H6(v13) -> CH4 CH2
e + C2H6 => e + CH3 + CH3		! f38 * Bolsig+ C2H6 -> CH3 CH3
e + C2H6(v24) => e + CH3 + CH3		! f38 * Bolsig+ C2H6(v24) -> CH3 CH3
e + C2H6(v13) => e + CH3 + CH3		! f38 * Bolsig+ C2H6(v13) -> CH3 CH3
e + C2H5 => e + C2H4 + H		! f39 * Bolsig+ C2H5 -> C2H4 H
e + C2H5 => e + C2H3 + H2		! f40 * Bolsig+ C2H5 -> C2H3 H2
e + C2H5 => e + C2H3 + H + H		! f41 * Bolsig+ C2H5 -> C2H3 H H
e + C2H5 => e + C2H2 + H2 + H		! f42 * Bolsig+ C2H5 -> C2H2 H2 H
e + C2H5 => e + CH4 + CH		! f43 * Bolsig+ C2H5 -> CH4 CH
e + C2H5 => e + CH3 + CH2		! f44 * Bolsig+ C2H5 -> CH3 CH2
e + C2H4 => e + C2H3 + H		! f45 * Bolsig+ C2H4 -> C2H3 H
e + C2H4(v1) => e + C2H3 + H		! f45 * Bolsig+ C2H4(v1) -> C2H3 H
e + C2H4(v2) => e + C2H3 + H		! f45 * Bolsig+ C2H4(v2) -> C2H3 H
e + C2H4 => e + C2H2 + H2		! f46 * Bolsig+ C2H4 -> C2H2 H2
e + C2H4(v1) => e + C2H2 + H2		! f46 * Bolsig+ C2H4(v1) -> C2H2 H2
e + C2H4(v2) => e + C2H2 + H2		! f46 * Bolsig+ C2H4(v2) -> C2H2 H2
e + C2H4 => e + C2H2 + H + H		! f47 * Bolsig+ C2H4 -> C2H2 H H
e + C2H4(v1) => e + C2H2 + H + H		! f47 * Bolsig+ C2H4(v1) -> C2H2 H H
e + C2H4(v2) => e + C2H2 + H + H		! f47 * Bolsig+ C2H4(v2) -> C2H2 H H
e + C2H4 => e + CH3 + CH		! f48 * Bolsig+ C2H4 -> CH3 CH
e + C2H4(v1) => e + CH3 + CH		! f48 * Bolsig+ C2H4(v1) -> CH3 CH
e + C2H4(v2) => e + CH3 + CH		! f48 * Bolsig+ C2H4(v2) -> CH3 CH
e + C2H4 => e + CH2 + CH2		! f49 * Bolsig+ C2H4 -> CH2 CH2
e + C2H4(v1) => e + CH2 + CH2		! f49 * Bolsig+ C2H4(v1) -> CH2 CH2
e + C2H4(v2) => e + CH2 + CH2		! f49 * Bolsig+ C2H4(v2) -> CH2 CH2
e + C2H3 => e + C2H2 + H		! f50 * Bolsig+ C2H3 -> C2H2 H
e + C2H3 => e + CH2 + CH		! f51 * Bolsig+ C2H3 -> CH2 CH
e + C2H2 => e + CH + CH		! f52 * Bolsig+ C2H2 -> CH CH
e + C2H2(v5) => e + CH + CH		! f52 * Bolsig+ C2H2(v5) -> CH CH
e + C2H2(v2) => e + CH + CH		! f52 * Bolsig+ C2H2(v2) -> CH CH
e + C2H2(v13) => e + CH + CH		! f52 * Bolsig+ C2H2(v13) -> CH CH
e + C2H6 => e + e + C2H6^+		! f53 * Bolsig+ C2H6 -> C2H6^+
e + C2H6(v24) => e + e + C2H6^+		! f53 * Bolsig+ C2H6(v24) -> C2H6^+
e + C2H6(v13) => e + e + C2H6^+		! f53 * Bolsig+ C2H6(v13) -> C2H6^+
e + C2H6 => e + e + H + C2H5^+		! f54 * Bolsig+ C2H6 -> H C2H5^+
e + C2H6(v24) => e + e + H + C2H5^+		! f54 * Bolsig+ C2H6(v24) -> H C2H5^+
e + C2H6(v13) => e + e + H + C2H5^+		! f54 * Bolsig+ C2H6(v13) -> H C2H5^+
e + C2H6 => e + e + H2 + C2H4^+		! f55 * Bolsig+ C2H6 -> H2 C2H4^+
e + C2H6(v24) => e + e + H2 + C2H4^+		! f55 * Bolsig+ C2H6(v24) -> H2 C2H4^+
e + C2H6(v13) => e + e + H2 + C2H4^+		! f55 * Bolsig+ C2H6(v13) -> H2 C2H4^+
e + C2H6 => e + e + H2 + H + C2H3^+		! f56 * Bolsig+ C2H6 -> H2 H C2H3^+
e + C2H6(v24) => e + e + H2 + H + C2H3^+		! f56 * Bolsig+ C2H6(v24) -> H2 H C2H3^+
e + C2H6(v13) => e + e + H2 + H + C2H3^+		! f56 * Bolsig+ C2H6(v13) -> H2 H C2H3^+
e + C2H6 => e + e + H2 + H2 + C2H2^+		! f57 * Bolsig+ C2H6 -> H2 H2 C2H2^+
e + C2H6(v24) => e + e + H2 + H2 + C2H2^+		! f57 * Bolsig+ C2H6(v24) -> H2 H2 C2H2^+
e + C2H6(v13) => e + e + H2 + H2 + C2H2^+		! f57 * Bolsig+ C2H6(v13) -> H2 H2 C2H2^+
e + C2H6 => e + e + CH3 + CH3^+		! f58 * Bolsig+ C2H6 -> CH3 CH3^+
e + C2H6(v24) => e + e + CH3 + CH3^+		! f58 * Bolsig+ C2H6(v24) -> CH3 CH3^+
e + C2H6(v13) => e + e + CH3 + CH3^+		! f58 * Bolsig+ C2H6(v13) -> CH3 CH3^+
e + C2H6 => e + e + CH4 + CH2^+		! f59 * Bolsig+ C2H6 -> CH4 CH2^+
e + C2H6(v24) => e + e + CH4 + CH2^+		! f59 * Bolsig+ C2H6(v24) -> CH4 CH2^+
e + C2H6(v13) => e + e + CH4 + CH2^+		! f59 * Bolsig+ C2H6(v13) -> CH4 CH2^+
e + C2H5 => e + e + C2H5^+		! f60 * Bolsig+ C2H5 -> C2H5^+
e + C2H5 => e + e + H + C2H4^+		! f61 * Bolsig+ C2H5 -> H C2H4^+
e + C2H5 => e + e + H2 + C2H3^+		! f62 * Bolsig+ C2H5 -> H2 C2H3^+
e + C2H5 => e + e + H2 + H + C2H2^+		! f63 * Bolsig+ C2H5 -> H2 H C2H2^+
e + C2H5 => e + e + CH2 + CH3^+		! f64 * Bolsig+ C2H5 -> CH2 CH3^+
e + C2H5 => e + e + CH3 + CH2^+		! f65 * Bolsig+ C2H5 -> CH3 CH2^+
e + C2H5 => e + e + CH4 + CH^+		! f66 * Bolsig+ C2H5 -> CH4 CH^+
e + C2H4 => e + e + C2H4^+		! f67 * Bolsig+ C2H4 -> C2H4^+
e + C2H4(v1) => e + e + C2H4^+		! f67 * Bolsig+ C2H4(v1) -> C2H4^+
e + C2H4(v2) => e + e + C2H4^+		! f67 * Bolsig+ C2H4(v2) -> C2H4^+
e + C2H4 => e + e + H + C2H3^+		! f68 * Bolsig+ C2H4 -> H C2H3^+
e + C2H4(v1) => e + e + H + C2H3^+		! f68 * Bolsig+ C2H4(v1) -> H C2H3^+
e + C2H4(v2) => e + e + H + C2H3^+		! f68 * Bolsig+ C2H4(v2) -> H C2H3^+
e + C2H4 => e + e + CH + CH3^+		! f69 * Bolsig+ C2H4 -> CH CH3^+
e + C2H4(v1) => e + e + CH + CH3^+		! f69 * Bolsig+ C2H4(v1) -> CH CH3^+
e + C2H4(v2) => e + e + CH + CH3^+		! f69 * Bolsig+ C2H4(v2) -> CH CH3^+
e + C2H4 => e + e + CH2 + CH2^+		! f70 * Bolsig+ C2H4 -> CH2 CH2^+
e + C2H4(v1) => e + e + CH2 + CH2^+		! f70 * Bolsig+ C2H4(v1) -> CH2 CH2^+
e + C2H4(v2) => e + e + CH2 + CH2^+		! f70 * Bolsig+ C2H4(v2) -> CH2 CH2^+
e + C2H4 => e + e + CH3 + CH^+		! f71 * Bolsig+ C2H4 -> CH3 CH^+
e + C2H4(v1) => e + e + CH3 + CH^+		! f71 * Bolsig+ C2H4(v1) -> CH3 CH^+
e + C2H4(v2) => e + e + CH3 + CH^+		! f71 * Bolsig+ C2H4(v2) -> CH3 CH^+
e + C2H3 => e + e + C2H3^+		! f72 * Bolsig+ C2H3 -> C2H3^+
e + C2H3 => e + e + H + C2H2^+		! f73 * Bolsig+ C2H3 -> H C2H2^+
e + C2H3 => e + e + CH + CH2^+		! f74 * Bolsig+ C2H3 -> CH CH2^+
e + C2H3 => e + e + CH2 + CH^+		! f75 * Bolsig+ C2H3 -> CH2 CH^+
e + C2H3 => e + e + C2H2 + H^+		! f76 * Bolsig+ C2H3 -> C2H2 H^+
e + C2H2 => e + e + C2H2^+		! f77 * Bolsig+ C2H2 -> C2H2^+
e + C2H2(v5) => e + e + C2H2^+		! f77 * Bolsig+ C2H2(v5) -> C2H2^+
e + C2H2(v2) => e + e + C2H2^+		! f77 * Bolsig+ C2H2(v2) -> C2H2^+
e + C2H2(v13) => e + e + C2H2^+		! f77 * Bolsig+ C2H2(v13) -> C2H2^+
e + C2H2 => e + e + CH + CH^+		! f78 * Bolsig+ C2H2 -> CH CH^+
e + C2H2(v5) => e + e + CH + CH^+		! f78 * Bolsig+ C2H2(v5) -> CH CH^+
e + C2H2(v2) => e + e + CH + CH^+		! f78 * Bolsig+ C2H2(v2) -> CH CH^+
e + C2H2(v13) => e + e + CH + CH^+		! f78 * Bolsig+ C2H2(v13) -> CH CH^+
e + C3H8 => e + C3H7 + H		! f79 * Bolsig+ C3H8 -> C3H7 H
e + C3H8(v1) => e + C3H7 + H		! f79 * Bolsig+ C3H8(v1) -> C3H7 H
e + C3H8(v2) => e + C3H7 + H		! f79 * Bolsig+ C3H8(v2) -> C3H7 H
e + C3H8 => e + C3H6 + H2		! f80 * Bolsig+ C3H8 -> C3H6 H2
e + C3H8(v1) => e + C3H6 + H2		! f80 * Bolsig+ C3H8(v1) -> C3H6 H2
e + C3H8(v2) => e + C3H6 + H2		! f80 * Bolsig+ C3H8(v2) -> C3H6 H2
e + C3H7 => e + C3H6 + H		! f81 * Bolsig+ C3H7 -> C3H6 H
e + C3H8 => e + e + C3H8^+		! f82 * Bolsig+ C3H8 -> C3H8^+
e + C3H8(v1) => e + e + C3H8^+		! f82 * Bolsig+ C3H8(v1) -> C3H8^+
e + C3H8(v2) => e + e + C3H8^+		! f82 * Bolsig+ C3H8(v2) -> C3H8^+
e + C3H8 => e + e + H + C3H7^+		! f83 * Bolsig+ C3H8 -> H C3H7^+
e + C3H8(v1) => e + e + H + C3H7^+		! f83 * Bolsig+ C3H8(v1) -> H C3H7^+
e + C3H8(v2) => e + e + H + C3H7^+		! f83 * Bolsig+ C3H8(v2) -> H C3H7^+
e + C3H8 => e + e + H2 + C3H6^+		! f84 * Bolsig+ C3H8 -> H2 C3H6^+
e + C3H8(v1) => e + e + H2 + C3H6^+		! f84 * Bolsig+ C3H8(v1) -> H2 C3H6^+
e + C3H8(v2) => e + e + H2 + C3H6^+		! f84 * Bolsig+ C3H8(v2) -> H2 C3H6^+
e + C3H7 => e + e + C3H7^+		! f85 * Bolsig+ C3H7 -> C3H7^+
e + C3H7 => e + e + H + C3H6^+		! f86 * Bolsig+ C3H7 -> H C3H6^+
e + C3H6 => e + e + C3H6^+		! f87 * Bolsig+ C3H6 -> C3H6^+
e + C3H6(v) => e + e + C3H6^+		! f87 * Bolsig+ C3H6(v) -> C3H6^+
e + C3H6 => e + C2H2 + CH4		! f88 * Bolsig+ C3H6 -> C2H2 CH4
e + C3H6(v) => e + C2H2 + CH4		! f88 * Bolsig+ C3H6(v) -> C2H2 CH4
e + C3H6 => e + e + C2H2 + CH4^+		! f89 * Bolsig+ C3H6 -> C2H2 CH4^+
e + C3H6(v) => e + e + C2H2 + CH4^+		! f89 * Bolsig+ C3H6(v) -> C2H2 CH4^+

# Ion Recombination Reaction
e + e + CH^+ => e + CH		! f90 * 1.00d0
e + e + CH2^+ => e + CH2		! f91 * 1.00d0
e + e + CH3^+ => e + CH3		! f92 * 1.00d0
e + e + CH4^+ => e + CH4		! f93 * 1.00d0
e + e + C2H2^+ => e + C2H2		! f94 * 1.00d0
e + e + C2H3^+ => e + C2H3		! f95 * 1.00d0
e + e + C2H4^+ => e + C2H4		! f96 * 1.00d0
e + e + C2H5^+ => e + C2H5		! f97 * 1.00d0
e + e + C2H6^+ => e + C2H6		! f98 * 1.00d0
e + e + C3H6^+ => e + C3H6		! f99 * 1.00d0
e + e + C3H7^+ => e + C3H7		! f100 * 1.00d0
e + e + C3H8^+ => e + C3H8		! f101 * 1.00d0

# Gas Phase Reaction
e + CH4^+ => CH3 + H		! f102 * 1.18d-08 * (300./Tgas)**0.5
e + CH4^+ => CH2 + H + H		! f103 * 2.42d-08 * (300./Tgas)**0.5
e + CH4^+ => CH + H2 + H		! f104 * 1.41d-08 * (300./Tgas)**0.5
e + CH3^+ => CH2 + H		! f105 * 2.25d-08 * (300./Tgas)**0.5
e + CH3^+ => CH + H2		! f106 * 7.88d-09 * (300./Tgas)**0.5
e + CH3^+ => CH + H + H		! f107 * 9.00d-09 * (300./Tgas)**0.5
e + CH3^+ => C + H2 + H		! f108 * 1.69d-08 * (300./Tgas)**0.5
e + CH2^+ => CH + H		! f109 * 1.00d-08 * (300./Tgas)**0.5
e + CH2^+ => C + H2		! f110 * 4.82d-09 * (300./Tgas)**0.5
e + CH2^+ => C + H + H		! f111 * 2.53d-08 * (300./Tgas)**0.5
e + CH^+ => C + H		! f112 * 3.23d-08 * (300./Tgas)**0.42
e + C2H6^+ => C2H5 + H		! f113 * 2.19d-08 * (300./Tgas)**0.71
e + C2H6^+ => C2H4 + H + H		! f114 * 3.36d-08 * (300./Tgas)**0.71
e + C2H5^+ => C2H4 + H		! f115 * 7.70d-09 * (300./Tgas)**0.71
e + C2H5^+ => C2H3 + H + H		! f116 * 1.92d-08 * (300./Tgas)**0.71
e + C2H5^+ => C2H2 + H2 + H		! f117 * 1.60d-08 * (300./Tgas)**0.71
e + C2H5^+ => C2H2 + H + H + H		! f118 * 8.98d-09 * (300./Tgas)**0.71
e + C2H5^+ => CH3 + CH2		! f119 * 9.62d-09 * (300./Tgas)**0.71
e + C2H4^+ => C2H3 + H		! f120 * 8.29d-09 * (300./Tgas)**0.71
e + C2H4^+ => C2H2 + H + H		! f121 * 3.43d-08 * (300./Tgas)**0.71
e + C2H3^+ => C2H2 + H		! f122 * 1.34d-08 * (300./Tgas)**0.71
e + C2H2^+ => CH + CH		! f123 * 4.87d-09 * (300./Tgas)**0.71
e + H2^+ => H + H		! f124 * 3.17d21/(6.022d23 * Te**4.5)
e + H3^+ => H + H2		! f125 * 3.17d21/(6.022d23 * Te**4.5)
H2 + H2^+ => H + H3^+		! f126 * 2.11d-09
C2H6 + CH4^+ => CH4 + H2 + C2H4^+		! f127 * 1.91d-9
C2H6(v24) + CH4^+ => CH4 + H2 + C2H4^+		! f127 * 1.91d-9
C2H6(v13) + CH4^+ => CH4 + H2 + C2H4^+		! f127 * 1.91d-9
C2H4 + CH4^+ => CH3 + C2H5^+		! f128 * 4.23d-10