ELEMENTS
e C H
END

SPECIES
e C CH CH^+ CH2 CH2^+ CH3 CH3^+ CH4 CH4(v13) CH4(v24) CH4^+ C2H2 C2H2(v13) C2H2(v2) C2H2(v5) C2H2^+ C2H3 C2H3^+ C2H4 C2H4(v1) C2H4(v2) C2H4^+ C2H5 C2H5^+
C2H6 C2H6(v13) C2H6(v24) C2H6^+ C3H5 C3H6 C3H6(v) C3H6^+ C3H7 C3H7^+ C3H8 C3H8(v1) C3H8(v2) C3H8^+ C4H9 C4H9H C2H C5H12 H H2 H2^+ H3^+ H^+
END

BOLSIG
CH CH2 CH3 CH4 CH4(v13) CH4(v24) C2H2 C2H2(v13) C2H2(v2) C2H2(v5) C2H3 C2H4 C2H4(v1) C2H4(v2) C2H5 C2H6 C2H6(v13) C2H6(v24) C3H6 C3H6(v) C3H7 C3H8 C3H8(v1) C3H8(v2)
END

REACTIONS
# Gas Constant
$ double precision, parameter :: R = 8.314d-3

# Compensation Parameters
$ double precision, parameter :: f0 = 1.3199d-2
$ double precision, parameter :: f1 = 2.5477d+2
$ double precision, parameter :: f2 = 5.9845d-7
$ double precision, parameter :: f3 = 3.3198d-4
$ double precision, parameter :: f4 = 6.9601d-4
$ double precision, parameter :: f5 = 2.6332d0
$ double precision, parameter :: f6 = 3.0296d-7
$ double precision, parameter :: f7 = 1.6875d-2
$ double precision, parameter :: f8 = 5.0757d-7
$ double precision, parameter :: f9 = 6.1635d-7
$ double precision, parameter :: f10 = 2.2626d-3
$ double precision, parameter :: f11 = 2.5547d-3
$ double precision, parameter :: f12 = 2.8768d-2
$ double precision, parameter :: f13 = 6.4880d-3
$ double precision, parameter :: f14 = 4.3698d-5
$ double precision, parameter :: f15 = 9.5553d0
$ double precision, parameter :: f16 = 2.7880d-8
$ double precision, parameter :: f17 = 5.8394d-4
$ double precision, parameter :: f18 = 2.4714d-2
$ double precision, parameter :: f19 = 3.9181d-2
$ double precision, parameter :: f20 = 2.6662d-3
$ double precision, parameter :: f21 = 7.2356d-8
$ double precision, parameter :: f22 = 1.0847d+1
$ double precision, parameter :: f23 = 7.0411d+2
$ double precision, parameter :: f24 = 1.1439d+2
$ double precision, parameter :: f25 = 5.6209d-3
$ double precision, parameter :: f26 = 3.2690d-5
$ double precision, parameter :: f27 = 1.1469d-8
$ double precision, parameter :: f28 = 2.2254d-7
$ double precision, parameter :: f29 = 6.2830d0
$ double precision, parameter :: f30 = 5.9819d-4
$ double precision, parameter :: f31 = 7.2016d-7
$ double precision, parameter :: f32 = 3.9161d+2
$ double precision, parameter :: f33 = 9.9646d-8
$ double precision, parameter :: f34 = 3.9569d-4
$ double precision, parameter :: f35 = 1.4343d-7
$ double precision, parameter :: f36 = 4.3679d-2
$ double precision, parameter :: f37 = 3.4100d-8
$ double precision, parameter :: f38 = 6.8618d0
$ double precision, parameter :: f39 = 4.4176d-7
$ double precision, parameter :: f40 = 2.1592d+2
$ double precision, parameter :: f41 = 1.6755d-7
$ double precision, parameter :: f42 = 4.2119d-1
$ double precision, parameter :: f43 = 1.3879d-7
$ double precision, parameter :: f44 = 1.0110d-3
$ double precision, parameter :: f45 = 8.6285d+1
$ double precision, parameter :: f46 = 1.6242d-2
$ double precision, parameter :: f47 = 3.5115d-8
$ double precision, parameter :: f48 = 2.7458d-3
$ double precision, parameter :: f49 = 7.4790d-4
$ double precision, parameter :: f50 = 4.3832d-6
$ double precision, parameter :: f51 = 2.4867d+2
$ double precision, parameter :: f52 = 1.1445d-2
$ double precision, parameter :: f53 = 1.3713d0
$ double precision, parameter :: f54 = 3.6386d-4
$ double precision, parameter :: f55 = 8.6329d-7
$ double precision, parameter :: f56 = 5.9826d-1
$ double precision, parameter :: f57 = 1.4107d-7
$ double precision, parameter :: f58 = 5.2927d-3
$ double precision, parameter :: f59 = 5.6894d-2
$ double precision, parameter :: f60 = 1.4045d+2
$ double precision, parameter :: f61 = 3.0108d0
$ double precision, parameter :: f62 = 1.0004d-5
$ double precision, parameter :: f63 = 5.2566d-3
$ double precision, parameter :: f64 = 2.0642d-5
$ double precision, parameter :: f65 = 4.9459d-4
$ double precision, parameter :: f66 = 8.7358d-3
$ double precision, parameter :: f67 = 7.6072d-7
$ double precision, parameter :: f68 = 4.1645d-7
$ double precision, parameter :: f69 = 3.4442d+1
$ double precision, parameter :: f70 = 1.7924d-4
$ double precision, parameter :: f71 = 1.2450d+1
$ double precision, parameter :: f72 = 3.5261d-5
$ double precision, parameter :: f73 = 1.4971d-5
$ double precision, parameter :: f74 = 1.4863d-4
$ double precision, parameter :: f75 = 1.9497d-8
$ double precision, parameter :: f76 = 1.3542d-1
$ double precision, parameter :: f77 = 5.1277d-2
$ double precision, parameter :: f78 = 4.0766d0
$ double precision, parameter :: f79 = 3.5298d+2
$ double precision, parameter :: f80 = 3.2976d-5
$ double precision, parameter :: f81 = 2.0572d+1
$ double precision, parameter :: f82 = 2.3129d+1
$ double precision, parameter :: f83 = 9.5528d-7
$ double precision, parameter :: f84 = 3.1557d-7
$ double precision, parameter :: f85 = 1.7549d-5
$ double precision, parameter :: f86 = 7.2552d-8
$ double precision, parameter :: f87 = 6.3474d0
$ double precision, parameter :: f88 = 1.2246d+1
$ double precision, parameter :: f89 = 6.3137d-5
$ double precision, parameter :: f90 = 5.1547d-1
$ double precision, parameter :: f91 = 2.2741d0
$ double precision, parameter :: f92 = 9.0703d+2
$ double precision, parameter :: f93 = 8.1709d+1
$ double precision, parameter :: f94 = 9.2407d-3
$ double precision, parameter :: f95 = 6.8612d-3
$ double precision, parameter :: f96 = 1.5850d+2
$ double precision, parameter :: f97 = 1.4185d-7
$ double precision, parameter :: f98 = 4.6979d-5
$ double precision, parameter :: f99 = 4.5002d-8
$ double precision, parameter :: f100 = 3.8552d-1
$ double precision, parameter :: f101 = 5.0488d-5
$ double precision, parameter :: f102 = 3.1848d-6
$ double precision, parameter :: f103 = 2.2981d-4
$ double precision, parameter :: f104 = 3.6757d-8
$ double precision, parameter :: f105 = 5.0892d0
$ double precision, parameter :: f106 = 1.4123d-4
$ double precision, parameter :: f107 = 1.5780d-2
$ double precision, parameter :: f108 = 1.3441d-7
$ double precision, parameter :: f109 = 6.0176d-2
$ double precision, parameter :: f110 = 3.1549d-6
$ double precision, parameter :: f111 = 4.4103d-3
$ double precision, parameter :: f112 = 3.9045d-1
$ double precision, parameter :: f113 = 2.3867d+1
$ double precision, parameter :: f114 = 4.3424d-5
$ double precision, parameter :: f115 = 8.2881d0
$ double precision, parameter :: f116 = 9.5480d-1
$ double precision, parameter :: f117 = 2.6133d-8
$ double precision, parameter :: f118 = 4.4090d-3
$ double precision, parameter :: f119 = 1.6563d0
$ double precision, parameter :: f120 = 1.1784d-2
$ double precision, parameter :: f121 = 1.0772d0
$ double precision, parameter :: f122 = 8.2495d+1
$ double precision, parameter :: f123 = 1.8269d-8
$ double precision, parameter :: f124 = 1.8507d-4
$ double precision, parameter :: f125 = 1.4426d-7
$ double precision, parameter :: f126 = 1.3127d-8
$ double precision, parameter :: f127 = 1.7432d-7
$ double precision, parameter :: f128 = 2.4365d-3
$ double precision, parameter :: f129 = 6.5943d-1
$ double precision, parameter :: f130 = 9.1189d+2
$ double precision, parameter :: f131 = 8.2043d+1
$ double precision, parameter :: f132 = 2.0081d-4
$ double precision, parameter :: f133 = 9.5368d-2
$ double precision, parameter :: f134 = 1.1011d-8
$ double precision, parameter :: f135 = 1.1694d-4
$ double precision, parameter :: f136 = 4.3264d0
$ double precision, parameter :: f137 = 5.5871d0
$ double precision, parameter :: f138 = 4.5339d-2
$ double precision, parameter :: f139 = 1.0163d-4
$ double precision, parameter :: f140 = 2.0402d-1
$ double precision, parameter :: f141 = 5.9712d-1
$ double precision, parameter :: f142 = 1.5986d-5
$ double precision, parameter :: f143 = 4.0168d-5
$ double precision, parameter :: f144 = 1.3935d-8
$ double precision, parameter :: f145 = 2.1841d-2
$ double precision, parameter :: f146 = 3.0312d-6
$ double precision, parameter :: f147 = 5.6837d-6
$ double precision, parameter :: f148 = 4.0012d-5
$ double precision, parameter :: f149 = 1.6872d-7
$ double precision, parameter :: f150 = 2.0787d+1
$ double precision, parameter :: f151 = 1.3509d+1
$ double precision, parameter :: f152 = 1.5119d+2
$ double precision, parameter :: f153 = 2.4717d+1
$ double precision, parameter :: f154 = 9.0582d-6
$ double precision, parameter :: f155 = 1.6081d-6
$ double precision, parameter :: f156 = 8.7249d-5
$ double precision, parameter :: f157 = 6.7760d-3
$ double precision, parameter :: f158 = 1.7648d+2
$ double precision, parameter :: f159 = 2.0626d-5
$ double precision, parameter :: f160 = 1.4103d-3
$ double precision, parameter :: f161 = 8.7389d+1
$ double precision, parameter :: f162 = 1.7465d0
$ double precision, parameter :: f163 = 1.8256d-6
$ double precision, parameter :: f164 = 1.1828d0
$ double precision, parameter :: f165 = 2.2609d0
$ double precision, parameter :: f166 = 1.6880d-2
$ double precision, parameter :: f167 = 1.4201d-3
$ double precision, parameter :: f168 = 8.0506d-8
$ double precision, parameter :: f169 = 5.6168d-8
$ double precision, parameter :: f170 = 3.3582d-5
$ double precision, parameter :: f171 = 4.5657d-4
$ double precision, parameter :: f172 = 1.2031d+2
$ double precision, parameter :: f173 = 1.3781d-5
$ double precision, parameter :: f174 = 7.6760d+1
$ double precision, parameter :: f175 = 7.4969d-3
$ double precision, parameter :: f176 = 6.5635d+1
$ double precision, parameter :: f177 = 2.7035d-6
$ double precision, parameter :: f178 = 8.0660d+2
$ double precision, parameter :: f179 = 1.8598d-4
$ double precision, parameter :: f180 = 6.6153d-1
$ double precision, parameter :: f181 = 2.6648d0
$ double precision, parameter :: f182 = 4.6056d+2
$ double precision, parameter :: f183 = 2.7424d-5
$ double precision, parameter :: f184 = 5.9387d+2
$ double precision, parameter :: f185 = 1.1294d-2
$ double precision, parameter :: f186 = 1.0224d+1
$ double precision, parameter :: f187 = 3.9782d-2
$ double precision, parameter :: f188 = 2.8651d+2
$ double precision, parameter :: f189 = 1.1235d-6
$ double precision, parameter :: f190 = 1.5292d-2
$ double precision, parameter :: f191 = 1.2281d-4
$ double precision, parameter :: f192 = 3.1759d-8
$ double precision, parameter :: f193 = 1.2227d-3
$ double precision, parameter :: f194 = 5.3443d+1
$ double precision, parameter :: f195 = 3.4086d0
$ double precision, parameter :: f196 = 1.8086d-1
$ double precision, parameter :: f197 = 3.2681d-5
$ double precision, parameter :: f198 = 1.3463d-4
$ double precision, parameter :: f199 = 3.0216d+2
$ double precision, parameter :: f200 = 3.5012d-3
$ double precision, parameter :: f201 = 3.7966d-5
$ double precision, parameter :: f202 = 4.9005d-3
$ double precision, parameter :: f203 = 1.6440d-1
$ double precision, parameter :: f204 = 2.0914d-2
$ double precision, parameter :: f205 = 2.3415d-1
$ double precision, parameter :: f206 = 8.2197d-6
$ double precision, parameter :: f207 = 4.5775d-2
$ double precision, parameter :: f208 = 1.1915d-1
$ double precision, parameter :: f209 = 4.3978d-7
$ double precision, parameter :: f210 = 1.2820d-7
$ double precision, parameter :: f211 = 2.4051d-6
$ double precision, parameter :: f212 = 6.8364d-6
$ double precision, parameter :: f213 = 2.7372d-5
$ double precision, parameter :: f214 = 4.0084d+2
$ double precision, parameter :: f215 = 1.7272d-1
$ double precision, parameter :: f216 = 1.8733d+2
$ double precision, parameter :: f217 = 5.1050d+2
$ double precision, parameter :: f218 = 1.7916d-4
$ double precision, parameter :: f219 = 1.0372d-4
$ double precision, parameter :: f220 = 4.6577d-5
$ double precision, parameter :: f221 = 3.7767d-5
$ double precision, parameter :: f222 = 1.6471d-4
$ double precision, parameter :: f223 = 3.9872d-1
$ double precision, parameter :: f224 = 7.5343d-1
$ double precision, parameter :: f225 = 4.3546d-6
$ double precision, parameter :: f226 = 3.1491d-4
$ double precision, parameter :: f227 = 2.5415d0
$ double precision, parameter :: f228 = 8.6670d-4
$ double precision, parameter :: f229 = 4.2756d+1
$ double precision, parameter :: f230 = 1.5749d0
$ double precision, parameter :: f231 = 3.0585d+2
$ double precision, parameter :: f232 = 2.1859d-2
$ double precision, parameter :: f233 = 2.6641d-2
$ double precision, parameter :: f234 = 1.0530d-2
$ double precision, parameter :: f235 = 2.2079d+2
$ double precision, parameter :: f236 = 1.9972d-6
$ double precision, parameter :: f237 = 2.8832d-8
$ double precision, parameter :: f238 = 6.4969d-5
$ double precision, parameter :: f239 = 4.3023d+2
$ double precision, parameter :: f240 = 2.2202d-4
$ double precision, parameter :: f241 = 3.2247d-2
$ double precision, parameter :: f242 = 2.4738d+1
$ double precision, parameter :: f243 = 3.9404d+1
$ double precision, parameter :: f244 = 1.3148d-7
$ double precision, parameter :: f245 = 3.4147d-7
$ double precision, parameter :: f246 = 4.1468d+2
$ double precision, parameter :: f247 = 2.3324d-8
$ double precision, parameter :: f248 = 7.3728d-2
$ double precision, parameter :: f249 = 5.9652d-7
$ double precision, parameter :: f250 = 1.2858d-6
$ double precision, parameter :: f251 = 1.5694d-5
$ double precision, parameter :: f252 = 5.5201d0
$ double precision, parameter :: f253 = 9.6880d-3
$ double precision, parameter :: f254 = 9.9505d+1
$ double precision, parameter :: f255 = 7.8372d+1
$ double precision, parameter :: f256 = 6.0069d-5
$ double precision, parameter :: f257 = 2.4442d+2
$ double precision, parameter :: f258 = 1.7663d-4
$ double precision, parameter :: f259 = 8.3791d-2
$ double precision, parameter :: f260 = 1.5363d-7
$ double precision, parameter :: f261 = 3.7838d-4
$ double precision, parameter :: f262 = 2.0975d+2
$ double precision, parameter :: f263 = 2.8570d-7
$ double precision, parameter :: f264 = 1.8904d-1
$ double precision, parameter :: f265 = 5.3246d-1
$ double precision, parameter :: f266 = 9.9933d-3
$ double precision, parameter :: f267 = 5.9414d-1
$ double precision, parameter :: f268 = 6.2555d-5
$ double precision, parameter :: f269 = 1.4857d-4
$ double precision, parameter :: f270 = 2.0175d-1
$ double precision, parameter :: f271 = 9.0210d-5
$ double precision, parameter :: f272 = 1.4599d-3
$ double precision, parameter :: f273 = 5.6321d-3
$ double precision, parameter :: f274 = 4.4731d-3
$ double precision, parameter :: f275 = 5.7040d-4
$ double precision, parameter :: f276 = 1.9451d+2
$ double precision, parameter :: f277 = 2.4535d+2
$ double precision, parameter :: f278 = 1.6406d-2
$ double precision, parameter :: f279 = 5.1530d+1
$ double precision, parameter :: f280 = 7.5606d-7
$ double precision, parameter :: f281 = 5.4797d-4
$ double precision, parameter :: f282 = 7.3736d-4
$ double precision, parameter :: f283 = 1.3508d+2
$ double precision, parameter :: f284 = 3.7546d+2
$ double precision, parameter :: f285 = 3.0062d-4
$ double precision, parameter :: f286 = 6.6849d+1
$ double precision, parameter :: f287 = 1.6041d-4
$ double precision, parameter :: f288 = 5.3176d-2
$ double precision, parameter :: f289 = 1.0303d-3
$ double precision, parameter :: f290 = 2.5471d0
$ double precision, parameter :: f291 = 6.4657d-7
$ double precision, parameter :: f292 = 2.2241d-5
$ double precision, parameter :: f293 = 2.8257d-8
$ double precision, parameter :: f294 = 2.1551d-6
$ double precision, parameter :: f295 = 4.3517d-3
$ double precision, parameter :: f296 = 1.3095d+2
$ double precision, parameter :: f297 = 7.2110d-8
$ double precision, parameter :: f298 = 8.6308d-7
$ double precision, parameter :: f299 = 9.7643d-2
$ double precision, parameter :: f300 = 1.5070d-4
$ double precision, parameter :: f301 = 7.9157d-5
$ double precision, parameter :: f302 = 1.3624d+1
$ double precision, parameter :: f303 = 2.8030d0
$ double precision, parameter :: f304 = 3.8238d+1
$ double precision, parameter :: f305 = 1.4249d-1
$ double precision, parameter :: f306 = 3.9828d-8
$ double precision, parameter :: f307 = 3.8958d-6
$ double precision, parameter :: f308 = 1.7714d-3
$ double precision, parameter :: f309 = 4.6786d0
$ double precision, parameter :: f310 = 1.3131d0
$ double precision, parameter :: f311 = 9.6868d-7
$ double precision, parameter :: f312 = 1.5102d-4
$ double precision, parameter :: f313 = 1.7576d-1
$ double precision, parameter :: f314 = 6.7228d-6
$ double precision, parameter :: f315 = 9.6399d-6

# Electron Collision Reaction
e + CH4 => e + CH4(v24)		! f0 * Bolsig+ CH4 -> CH4(v24)
e + CH4 => e + CH4(v13)		! f1 * Bolsig+ CH4 -> CH4(v13)
e + C2H6 => e + C2H6(v24)		! f2 * Bolsig+ C2H6 -> C2H6(v24)
e + C2H6 => e + C2H6(v13)		! f3 * Bolsig+ C2H6 -> C2H6(v13)
e + C2H4 => e + C2H4(v1)		! f4 * Bolsig+ C2H4 -> C2H4(v1)
e + C2H4 => e + C2H4(v2)		! f5 * Bolsig+ C2H4 -> C2H4(v2)
e + C2H2 => e + C2H2(v5)		! f6 * Bolsig+ C2H2 -> C2H2(v5)
e + C2H2 => e + C2H2(v2)		! f7 * Bolsig+ C2H2 -> C2H2(v2)
e + C2H2 => e + C2H2(v13)		! f8 * Bolsig+ C2H2 -> C2H2(v13)
e + C3H8 => e + C3H8(v1)		! f9 * Bolsig+ C3H8 -> C3H8(v1)
e + C3H8 => e + C3H8(v2)		! f10 * Bolsig+ C3H8 -> C3H8(v2)
e + C3H6 => e + C3H6(v)		! f11 * Bolsig+ C3H6 -> C3H6(v)
e + CH4 => e + CH3 + H		! f12 * Bolsig+ CH4 -> CH3 H
e + CH4(v24) => e + CH3 + H		! f12 * Bolsig+ CH4(v24) -> CH3 H
e + CH4(v13) => e + CH3 + H		! f12 * Bolsig+ CH4(v13) -> CH3 H
e + CH4 => e + CH2 + H2		! f13 * Bolsig+ CH4 -> CH2 H2
e + CH4(v24) => e + CH2 + H2		! f13 * Bolsig+ CH4(v24) -> CH2 H2
e + CH4(v13) => e + CH2 + H2		! f13 * Bolsig+ CH4(v13) -> CH2 H2
e + CH4 => e + CH + H2 + H		! f14 * Bolsig+ CH4 -> CH H2 H
e + CH4(v24) => e + CH + H2 + H		! f14 * Bolsig+ CH4(v24) -> CH H2 H
e + CH4(v13) => e + CH + H2 + H		! f14 * Bolsig+ CH4(v13) -> CH H2 H
e + CH4 => e + C + H2 + H2		! f15 * Bolsig+ CH4 -> C H2 H2
e + CH4(v24) => e + C + H2 + H2		! f15 * Bolsig+ CH4(v24) -> C H2 H2
e + CH4(v13) => e + C + H2 + H2		! f15 * Bolsig+ CH4(v13) -> C H2 H2
e + CH3 => e + CH2 + H		! f16 * Bolsig+ CH3 -> CH2 H
e + CH3 => e + CH + H2		! f17 * Bolsig+ CH3 -> CH H2
e + CH3 => e + C + H2 + H		! f18 * Bolsig+ CH3 -> C H2 H
e + CH2 => e + CH + H		! f19 * Bolsig+ CH2 -> CH H
e + CH2 => e + C + H2		! f20 * Bolsig+ CH2 -> C H2
e + CH2 => e + C + H + H		! f21 * Bolsig+ CH2 -> C H H
e + CH => e + C + H		! f22 * Bolsig+ CH -> C H
e + CH4 => e + e + CH4^+		! f23 * Bolsig+ CH4 -> CH4^+
e + CH4(v24) => e + e + CH4^+		! f23 * Bolsig+ CH4(v24) -> CH4^+
e + CH4(v13) => e + e + CH4^+		! f23 * Bolsig+ CH4(v13) -> CH4^+
e + CH4 => e + e + H + CH3^+		! f24 * Bolsig+ CH4 -> H CH3^+
e + CH4(v24) => e + e + H + CH3^+		! f24 * Bolsig+ CH4(v24) -> H CH3^+
e + CH4(v13) => e + e + H + CH3^+		! f24 * Bolsig+ CH4(v13) -> H CH3^+
e + CH4 => e + e + H2 + CH2^+		! f25 * Bolsig+ CH4 -> H2 CH2^+
e + CH4(v24) => e + e + H2 + CH2^+		! f25 * Bolsig+ CH4(v24) -> H2 CH2^+
e + CH4(v13) => e + e + H2 + CH2^+		! f25 * Bolsig+ CH4(v13) -> H2 CH2^+
e + CH4 => e + e + H2 + H + CH^+		! f26 * Bolsig+ CH4 -> H2 H CH^+
e + CH4(v24) => e + e + H2 + H + CH^+		! f26 * Bolsig+ CH4(v24) -> H2 H CH^+
e + CH4(v13) => e + e + H2 + H + CH^+		! f26 * Bolsig+ CH4(v13) -> H2 H CH^+
e + CH3 => e + e + CH3^+		! f27 * Bolsig+ CH3 -> CH3^+
e + CH3 => e + e + H + CH2^+		! f28 * Bolsig+ CH3 -> H CH2^+
e + CH3 => e + e + H2 + CH^+		! f29 * Bolsig+ CH3 -> H2 CH^+
e + CH2 => e + e + CH2^+		! f30 * Bolsig+ CH2 -> CH2^+
e + CH2 => e + e + H + CH^+		! f31 * Bolsig+ CH2 -> H CH^+
e + CH => e + e + CH^+		! f32 * Bolsig+ CH -> CH^+
e + C2H6 => e + C2H5 + H		! f33 * Bolsig+ C2H6 -> C2H5 H
e + C2H6(v24) => e + C2H5 + H		! f33 * Bolsig+ C2H6(v24) -> C2H5 H
e + C2H6(v13) => e + C2H5 + H		! f33 * Bolsig+ C2H6(v13) -> C2H5 H
e + C2H6 => e + C2H4 + H2		! f34 * Bolsig+ C2H6 -> C2H4 H2
e + C2H6(v24) => e + C2H4 + H2		! f34 * Bolsig+ C2H6(v24) -> C2H4 H2
e + C2H6(v13) => e + C2H4 + H2		! f34 * Bolsig+ C2H6(v13) -> C2H4 H2
e + C2H6 => e + C2H3 + H2 + H		! f35 * Bolsig+ C2H6 -> C2H3 H2 H
e + C2H6(v24) => e + C2H3 + H2 + H		! f35 * Bolsig+ C2H6(v24) -> C2H3 H2 H
e + C2H6(v13) => e + C2H3 + H2 + H		! f35 * Bolsig+ C2H6(v13) -> C2H3 H2 H
e + C2H6 => e + C2H2 + H2 + H2		! f36 * Bolsig+ C2H6 -> C2H2 H2 H2
e + C2H6(v24) => e + C2H2 + H2 + H2		! f36 * Bolsig+ C2H6(v24) -> C2H2 H2 H2
e + C2H6(v13) => e + C2H2 + H2 + H2		! f36 * Bolsig+ C2H6(v13) -> C2H2 H2 H2
e + C2H6 => e + CH4 + CH2		! f37 * Bolsig+ C2H6 -> CH4 CH2
e + C2H6(v24) => e + CH4 + CH2		! f37 * Bolsig+ C2H6(v24) -> CH4 CH2
e + C2H6(v13) => e + CH4 + CH2		! f37 * Bolsig+ C2H6(v13) -> CH4 CH2
e + C2H6 => e + CH3 + CH3		! f38 * Bolsig+ C2H6 -> CH3 CH3
e + C2H6(v24) => e + CH3 + CH3		! f38 * Bolsig+ C2H6(v24) -> CH3 CH3
e + C2H6(v13) => e + CH3 + CH3		! f38 * Bolsig+ C2H6(v13) -> CH3 CH3
e + C2H5 => e + C2H4 + H		! f39 * Bolsig+ C2H5 -> C2H4 H
e + C2H5 => e + C2H3 + H2		! f40 * Bolsig+ C2H5 -> C2H3 H2
e + C2H5 => e + C2H3 + H + H		! f41 * Bolsig+ C2H5 -> C2H3 H H
e + C2H5 => e + C2H2 + H2 + H		! f42 * Bolsig+ C2H5 -> C2H2 H2 H
e + C2H5 => e + CH4 + CH		! f43 * Bolsig+ C2H5 -> CH4 CH
e + C2H5 => e + CH3 + CH2		! f44 * Bolsig+ C2H5 -> CH3 CH2
e + C2H4 => e + C2H3 + H		! f45 * Bolsig+ C2H4 -> C2H3 H
e + C2H4(v1) => e + C2H3 + H		! f45 * Bolsig+ C2H4(v1) -> C2H3 H
e + C2H4(v2) => e + C2H3 + H		! f45 * Bolsig+ C2H4(v2) -> C2H3 H
e + C2H4 => e + C2H2 + H2		! f46 * Bolsig+ C2H4 -> C2H2 H2
e + C2H4(v1) => e + C2H2 + H2		! f46 * Bolsig+ C2H4(v1) -> C2H2 H2
e + C2H4(v2) => e + C2H2 + H2		! f46 * Bolsig+ C2H4(v2) -> C2H2 H2
e + C2H4 => e + C2H2 + H + H		! f47 * Bolsig+ C2H4 -> C2H2 H H
e + C2H4(v1) => e + C2H2 + H + H		! f47 * Bolsig+ C2H4(v1) -> C2H2 H H
e + C2H4(v2) => e + C2H2 + H + H		! f47 * Bolsig+ C2H4(v2) -> C2H2 H H
e + C2H4 => e + CH3 + CH		! f48 * Bolsig+ C2H4 -> CH3 CH
e + C2H4(v1) => e + CH3 + CH		! f48 * Bolsig+ C2H4(v1) -> CH3 CH
e + C2H4(v2) => e + CH3 + CH		! f48 * Bolsig+ C2H4(v2) -> CH3 CH
e + C2H4 => e + CH2 + CH2		! f49 * Bolsig+ C2H4 -> CH2 CH2
e + C2H4(v1) => e + CH2 + CH2		! f49 * Bolsig+ C2H4(v1) -> CH2 CH2
e + C2H4(v2) => e + CH2 + CH2		! f49 * Bolsig+ C2H4(v2) -> CH2 CH2
e + C2H3 => e + C2H2 + H		! f50 * Bolsig+ C2H3 -> C2H2 H
e + C2H3 => e + CH2 + CH		! f51 * Bolsig+ C2H3 -> CH2 CH
e + C2H2 => e + CH + CH		! f52 * Bolsig+ C2H2 -> CH CH
e + C2H2(v5) => e + CH + CH		! f52 * Bolsig+ C2H2(v5) -> CH CH
e + C2H2(v2) => e + CH + CH		! f52 * Bolsig+ C2H2(v2) -> CH CH
e + C2H2(v13) => e + CH + CH		! f52 * Bolsig+ C2H2(v13) -> CH CH
e + C2H6 => e + e + C2H6^+		! f53 * Bolsig+ C2H6 -> C2H6^+
e + C2H6(v24) => e + e + C2H6^+		! f53 * Bolsig+ C2H6(v24) -> C2H6^+
e + C2H6(v13) => e + e + C2H6^+		! f53 * Bolsig+ C2H6(v13) -> C2H6^+
e + C2H6 => e + e + H + C2H5^+		! f54 * Bolsig+ C2H6 -> H C2H5^+
e + C2H6(v24) => e + e + H + C2H5^+		! f54 * Bolsig+ C2H6(v24) -> H C2H5^+
e + C2H6(v13) => e + e + H + C2H5^+		! f54 * Bolsig+ C2H6(v13) -> H C2H5^+
e + C2H6 => e + e + H2 + C2H4^+		! f55 * Bolsig+ C2H6 -> H2 C2H4^+
e + C2H6(v24) => e + e + H2 + C2H4^+		! f55 * Bolsig+ C2H6(v24) -> H2 C2H4^+
e + C2H6(v13) => e + e + H2 + C2H4^+		! f55 * Bolsig+ C2H6(v13) -> H2 C2H4^+
e + C2H6 => e + e + H2 + H + C2H3^+		! f56 * Bolsig+ C2H6 -> H2 H C2H3^+
e + C2H6(v24) => e + e + H2 + H + C2H3^+		! f56 * Bolsig+ C2H6(v24) -> H2 H C2H3^+
e + C2H6(v13) => e + e + H2 + H + C2H3^+		! f56 * Bolsig+ C2H6(v13) -> H2 H C2H3^+
e + C2H6 => e + e + H2 + H2 + C2H2^+		! f57 * Bolsig+ C2H6 -> H2 H2 C2H2^+
e + C2H6(v24) => e + e + H2 + H2 + C2H2^+		! f57 * Bolsig+ C2H6(v24) -> H2 H2 C2H2^+
e + C2H6(v13) => e + e + H2 + H2 + C2H2^+		! f57 * Bolsig+ C2H6(v13) -> H2 H2 C2H2^+
e + C2H6 => e + e + CH3 + CH3^+		! f58 * Bolsig+ C2H6 -> CH3 CH3^+
e + C2H6(v24) => e + e + CH3 + CH3^+		! f58 * Bolsig+ C2H6(v24) -> CH3 CH3^+
e + C2H6(v13) => e + e + CH3 + CH3^+		! f58 * Bolsig+ C2H6(v13) -> CH3 CH3^+
e + C2H6 => e + e + CH4 + CH2^+		! f59 * Bolsig+ C2H6 -> CH4 CH2^+
e + C2H6(v24) => e + e + CH4 + CH2^+		! f59 * Bolsig+ C2H6(v24) -> CH4 CH2^+
e + C2H6(v13) => e + e + CH4 + CH2^+		! f59 * Bolsig+ C2H6(v13) -> CH4 CH2^+
e + C2H5 => e + e + C2H5^+		! f60 * Bolsig+ C2H5 -> C2H5^+
e + C2H5 => e + e + H + C2H4^+		! f61 * Bolsig+ C2H5 -> H C2H4^+
e + C2H5 => e + e + H2 + C2H3^+		! f62 * Bolsig+ C2H5 -> H2 C2H3^+
e + C2H5 => e + e + H2 + H + C2H2^+		! f63 * Bolsig+ C2H5 -> H2 H C2H2^+
e + C2H5 => e + e + CH2 + CH3^+		! f64 * Bolsig+ C2H5 -> CH2 CH3^+
e + C2H5 => e + e + CH3 + CH2^+		! f65 * Bolsig+ C2H5 -> CH3 CH2^+
e + C2H5 => e + e + CH4 + CH^+		! f66 * Bolsig+ C2H5 -> CH4 CH^+
e + C2H4 => e + e + C2H4^+		! f67 * Bolsig+ C2H4 -> C2H4^+
e + C2H4(v1) => e + e + C2H4^+		! f67 * Bolsig+ C2H4(v1) -> C2H4^+
e + C2H4(v2) => e + e + C2H4^+		! f67 * Bolsig+ C2H4(v2) -> C2H4^+
e + C2H4 => e + e + H + C2H3^+		! f68 * Bolsig+ C2H4 -> H C2H3^+
e + C2H4(v1) => e + e + H + C2H3^+		! f68 * Bolsig+ C2H4(v1) -> H C2H3^+
e + C2H4(v2) => e + e + H + C2H3^+		! f68 * Bolsig+ C2H4(v2) -> H C2H3^+
e + C2H4 => e + e + CH + CH3^+		! f69 * Bolsig+ C2H4 -> CH CH3^+
e + C2H4(v1) => e + e + CH + CH3^+		! f69 * Bolsig+ C2H4(v1) -> CH CH3^+
e + C2H4(v2) => e + e + CH + CH3^+		! f69 * Bolsig+ C2H4(v2) -> CH CH3^+
e + C2H4 => e + e + CH2 + CH2^+		! f70 * Bolsig+ C2H4 -> CH2 CH2^+
e + C2H4(v1) => e + e + CH2 + CH2^+		! f70 * Bolsig+ C2H4(v1) -> CH2 CH2^+
e + C2H4(v2) => e + e + CH2 + CH2^+		! f70 * Bolsig+ C2H4(v2) -> CH2 CH2^+
e + C2H4 => e + e + CH3 + CH^+		! f71 * Bolsig+ C2H4 -> CH3 CH^+
e + C2H4(v1) => e + e + CH3 + CH^+		! f71 * Bolsig+ C2H4(v1) -> CH3 CH^+
e + C2H4(v2) => e + e + CH3 + CH^+		! f71 * Bolsig+ C2H4(v2) -> CH3 CH^+
e + C2H3 => e + e + C2H3^+		! f72 * Bolsig+ C2H3 -> C2H3^+
e + C2H3 => e + e + H + C2H2^+		! f73 * Bolsig+ C2H3 -> H C2H2^+
e + C2H3 => e + e + CH + CH2^+		! f74 * Bolsig+ C2H3 -> CH CH2^+
e + C2H3 => e + e + CH2 + CH^+		! f75 * Bolsig+ C2H3 -> CH2 CH^+
e + C2H3 => e + e + C2H2 + H^+		! f76 * Bolsig+ C2H3 -> C2H2 H^+
e + C2H2 => e + e + C2H2^+		! f77 * Bolsig+ C2H2 -> C2H2^+
e + C2H2(v5) => e + e + C2H2^+		! f77 * Bolsig+ C2H2(v5) -> C2H2^+
e + C2H2(v2) => e + e + C2H2^+		! f77 * Bolsig+ C2H2(v2) -> C2H2^+
e + C2H2(v13) => e + e + C2H2^+		! f77 * Bolsig+ C2H2(v13) -> C2H2^+
e + C2H2 => e + e + CH + CH^+		! f78 * Bolsig+ C2H2 -> CH CH^+
e + C2H2(v5) => e + e + CH + CH^+		! f78 * Bolsig+ C2H2(v5) -> CH CH^+
e + C2H2(v2) => e + e + CH + CH^+		! f78 * Bolsig+ C2H2(v2) -> CH CH^+
e + C2H2(v13) => e + e + CH + CH^+		! f78 * Bolsig+ C2H2(v13) -> CH CH^+
e + C3H8 => e + C3H7 + H		! f79 * Bolsig+ C3H8 -> C3H7 H
e + C3H8(v1) => e + C3H7 + H		! f79 * Bolsig+ C3H8(v1) -> C3H7 H
e + C3H8(v2) => e + C3H7 + H		! f79 * Bolsig+ C3H8(v2) -> C3H7 H
e + C3H8 => e + C3H6 + H2		! f80 * Bolsig+ C3H8 -> C3H6 H2
e + C3H8(v1) => e + C3H6 + H2		! f80 * Bolsig+ C3H8(v1) -> C3H6 H2
e + C3H8(v2) => e + C3H6 + H2		! f80 * Bolsig+ C3H8(v2) -> C3H6 H2
e + C3H7 => e + C3H6 + H		! f81 * Bolsig+ C3H7 -> C3H6 H
e + C3H8 => e + e + C3H8^+		! f82 * Bolsig+ C3H8 -> C3H8^+
e + C3H8(v1) => e + e + C3H8^+		! f82 * Bolsig+ C3H8(v1) -> C3H8^+
e + C3H8(v2) => e + e + C3H8^+		! f82 * Bolsig+ C3H8(v2) -> C3H8^+
e + C3H8 => e + e + H + C3H7^+		! f83 * Bolsig+ C3H8 -> H C3H7^+
e + C3H8(v1) => e + e + H + C3H7^+		! f83 * Bolsig+ C3H8(v1) -> H C3H7^+
e + C3H8(v2) => e + e + H + C3H7^+		! f83 * Bolsig+ C3H8(v2) -> H C3H7^+
e + C3H8 => e + e + H2 + C3H6^+		! f84 * Bolsig+ C3H8 -> H2 C3H6^+
e + C3H8(v1) => e + e + H2 + C3H6^+		! f84 * Bolsig+ C3H8(v1) -> H2 C3H6^+
e + C3H8(v2) => e + e + H2 + C3H6^+		! f84 * Bolsig+ C3H8(v2) -> H2 C3H6^+
e + C3H7 => e + e + C3H7^+		! f85 * Bolsig+ C3H7 -> C3H7^+
e + C3H7 => e + e + H + C3H6^+		! f86 * Bolsig+ C3H7 -> H C3H6^+
e + C3H6 => e + e + C3H6^+		! f87 * Bolsig+ C3H6 -> C3H6^+
e + C3H6(v) => e + e + C3H6^+		! f87 * Bolsig+ C3H6(v) -> C3H6^+
e + C3H6 => e + C2H2 + CH4		! f88 * Bolsig+ C3H6 -> C2H2 CH4
e + C3H6(v) => e + C2H2 + CH4		! f88 * Bolsig+ C3H6(v) -> C2H2 CH4
e + C3H6 => e + e + C2H2 + CH4^+		! f89 * Bolsig+ C3H6 -> C2H2 CH4^+
e + C3H6(v) => e + e + C2H2 + CH4^+		! f89 * Bolsig+ C3H6(v) -> C2H2 CH4^+

# Ion Recombination Reaction
e + e + CH^+ => e + CH		! f90 * 1.00d0
e + e + CH2^+ => e + CH2		! f91 * 1.00d0
e + e + CH3^+ => e + CH3		! f92 * 1.00d0
e + e + CH4^+ => e + CH4		! f93 * 1.00d0
e + e + C2H2^+ => e + C2H2		! f94 * 1.00d0
e + e + C2H3^+ => e + C2H3		! f95 * 1.00d0
e + e + C2H4^+ => e + C2H4		! f96 * 1.00d0
e + e + C2H5^+ => e + C2H5		! f97 * 1.00d0
e + e + C2H6^+ => e + C2H6		! f98 * 1.00d0
e + e + C3H6^+ => e + C3H6		! f99 * 1.00d0
e + e + C3H7^+ => e + C3H7		! f100 * 1.00d0
e + e + C3H8^+ => e + C3H8		! f101 * 1.00d0

# Gas Phase Reaction
e + CH4^+ => CH3 + H		! f102 * 1.18d-08 * (300./Tgas)**0.5
e + CH4^+ => CH2 + H + H		! f103 * 2.42d-08 * (300./Tgas)**0.5
e + CH4^+ => CH + H2 + H		! f104 * 1.41d-08 * (300./Tgas)**0.5
e + CH3^+ => CH2 + H		! f105 * 2.25d-08 * (300./Tgas)**0.5
e + CH3^+ => CH + H2		! f106 * 7.88d-09 * (300./Tgas)**0.5
e + CH3^+ => CH + H + H		! f107 * 9.00d-09 * (300./Tgas)**0.5
e + CH3^+ => C + H2 + H		! f108 * 1.69d-08 * (300./Tgas)**0.5
e + CH2^+ => CH + H		! f109 * 1.00d-08 * (300./Tgas)**0.5
e + CH2^+ => C + H2		! f110 * 4.82d-09 * (300./Tgas)**0.5
e + CH2^+ => C + H + H		! f111 * 2.53d-08 * (300./Tgas)**0.5
e + CH^+ => C + H		! f112 * 3.23d-08 * (300./Tgas)**0.42
e + C2H6^+ => C2H5 + H		! f113 * 2.19d-08 * (300./Tgas)**0.71
e + C2H6^+ => C2H4 + H + H		! f114 * 3.36d-08 * (300./Tgas)**0.71
e + C2H5^+ => C2H4 + H		! f115 * 7.70d-09 * (300./Tgas)**0.71
e + C2H5^+ => C2H3 + H + H		! f116 * 1.92d-08 * (300./Tgas)**0.71
e + C2H5^+ => C2H2 + H2 + H		! f117 * 1.60d-08 * (300./Tgas)**0.71
e + C2H5^+ => C2H2 + H + H + H		! f118 * 8.98d-09 * (300./Tgas)**0.71
e + C2H5^+ => CH3 + CH2		! f119 * 9.62d-09 * (300./Tgas)**0.71
e + C2H4^+ => C2H3 + H		! f120 * 8.29d-09 * (300./Tgas)**0.71
e + C2H4^+ => C2H2 + H + H		! f121 * 3.43d-08 * (300./Tgas)**0.71
e + C2H3^+ => C2H2 + H		! f122 * 1.34d-08 * (300./Tgas)**0.71
e + C2H2^+ => CH + CH		! f123 * 4.87d-09 * (300./Tgas)**0.71
e + H2^+ => H + H		! f124 * 3.17d21/(6.022d23 * Te**4.5)
e + H3^+ => H + H2		! f125 * 3.17d21/(6.022d23 * Te**4.5)
H2 + H2^+ => H + H3^+		! f126 * 2.11d-09
C2H6 + CH4^+ => CH4 + H2 + C2H4^+		! f127 * 1.91d-9
C2H6(v24) + CH4^+ => CH4 + H2 + C2H4^+		! f127 * 1.91d-9
C2H6(v13) + CH4^+ => CH4 + H2 + C2H4^+		! f127 * 1.91d-9
C2H4 + CH4^+ => CH3 + C2H5^+		! f128 * 4.23d-10