ELEMENTS
e C H
END

SPECIES
e C CH CH^+ CH2 CH2^+ CH3 CH3^+ CH4 CH4(v13) CH4(v24) CH4^+ C2H2 C2H2(v13) C2H2(v2) C2H2(v5) C2H2^+ C2H3 C2H3^+ C2H4 C2H4(v1) C2H4(v2) C2H4^+ C2H5 C2H5^+
C2H6 C2H6(v13) C2H6(v24) C2H6^+ C3H5 C3H6 C3H6(v) C3H6^+ C3H7 C3H7^+ C3H8 C3H8(v1) C3H8(v2) C3H8^+ C4H9 C4H9H C2H C5H12 H H2 H2^+ H3^+ H^+
END

BOLSIG
CH CH2 CH3 CH4 CH4(v13) CH4(v24) C2H2 C2H2(v13) C2H2(v2) C2H2(v5) C2H3 C2H4 C2H4(v1) C2H4(v2) C2H5 C2H6 C2H6(v13) C2H6(v24) C3H6 C3H6(v) C3H7 C3H8 C3H8(v1) C3H8(v2)
END

REACTIONS
# Gas Constant
$ double precision, parameter :: R = 8.314d-3

# Compensation Parameters
$ double precision, parameter :: f0 = 4.3704d+1
$ double precision, parameter :: f1 = 3.8930d-6
$ double precision, parameter :: f2 = 1.1893d-4
$ double precision, parameter :: f3 = 1.9363d-4
$ double precision, parameter :: f4 = 5.6460d-4
$ double precision, parameter :: f5 = 2.3446d+2
$ double precision, parameter :: f6 = 2.3564d-4
$ double precision, parameter :: f7 = 1.4457d-8
$ double precision, parameter :: f8 = 6.1450d-1
$ double precision, parameter :: f9 = 1.1557d-8
$ double precision, parameter :: f10 = 1.3813d-7
$ double precision, parameter :: f11 = 5.8979d-4
$ double precision, parameter :: f12 = 1.7246d-2
$ double precision, parameter :: f13 = 1.7571d0
$ double precision, parameter :: f14 = 3.0865d+1
$ double precision, parameter :: f15 = 8.4872d0
$ double precision, parameter :: f16 = 1.9341d+1
$ double precision, parameter :: f17 = 1.3066d-5
$ double precision, parameter :: f18 = 2.8775d0
$ double precision, parameter :: f19 = 2.4335d-7
$ double precision, parameter :: f20 = 1.0090d-6
$ double precision, parameter :: f21 = 1.5805d-5
$ double precision, parameter :: f22 = 6.0275d-5
$ double precision, parameter :: f23 = 2.8237d-4
$ double precision, parameter :: f24 = 2.1815d+2
$ double precision, parameter :: f25 = 2.4009d-6
$ double precision, parameter :: f26 = 5.5963d-4
$ double precision, parameter :: f27 = 8.0398d-7
$ double precision, parameter :: f28 = 3.1562d0
$ double precision, parameter :: f29 = 7.6437d+2
$ double precision, parameter :: f30 = 4.5136d-6
$ double precision, parameter :: f31 = 3.4683d+2
$ double precision, parameter :: f32 = 2.7217d0
$ double precision, parameter :: f33 = 3.0530d0
$ double precision, parameter :: f34 = 3.2560d-4
$ double precision, parameter :: f35 = 1.3367d-6
$ double precision, parameter :: f36 = 3.0390d-4
$ double precision, parameter :: f37 = 1.3071d-5
$ double precision, parameter :: f38 = 3.0543d-7
$ double precision, parameter :: f39 = 1.2316d-5
$ double precision, parameter :: f40 = 1.7640d+1
$ double precision, parameter :: f41 = 2.4675d+2
$ double precision, parameter :: f42 = 1.8048d-4
$ double precision, parameter :: f43 = 4.7402d-6
$ double precision, parameter :: f44 = 2.2964d+2
$ double precision, parameter :: f45 = 6.8834d-1
$ double precision, parameter :: f46 = 1.5147d-6
$ double precision, parameter :: f47 = 8.4176d-8
$ double precision, parameter :: f48 = 8.0442d-8
$ double precision, parameter :: f49 = 9.6917d+1
$ double precision, parameter :: f50 = 1.8818d-5
$ double precision, parameter :: f51 = 1.6025d-6
$ double precision, parameter :: f52 = 1.0534d-8
$ double precision, parameter :: f53 = 9.8606d+2
$ double precision, parameter :: f54 = 9.1063d-4
$ double precision, parameter :: f55 = 2.5511d+2
$ double precision, parameter :: f56 = 4.5653d-3
$ double precision, parameter :: f57 = 1.6074d-2
$ double precision, parameter :: f58 = 4.0836d+2
$ double precision, parameter :: f59 = 1.1688d-3
$ double precision, parameter :: f60 = 3.0012d-3
$ double precision, parameter :: f61 = 2.7776d-1
$ double precision, parameter :: f62 = 9.2539d+1
$ double precision, parameter :: f63 = 1.4530d+2
$ double precision, parameter :: f64 = 7.2208d0
$ double precision, parameter :: f65 = 9.8955d-1
$ double precision, parameter :: f66 = 5.4477d-7
$ double precision, parameter :: f67 = 1.0540d-5
$ double precision, parameter :: f68 = 3.6652d+1
$ double precision, parameter :: f69 = 5.7801d-2
$ double precision, parameter :: f70 = 3.1800d-7
$ double precision, parameter :: f71 = 2.2203d-5
$ double precision, parameter :: f72 = 2.3267d-2
$ double precision, parameter :: f73 = 1.4252d0
$ double precision, parameter :: f74 = 4.2287d-3
$ double precision, parameter :: f75 = 5.3463d-6
$ double precision, parameter :: f76 = 1.5775d-2
$ double precision, parameter :: f77 = 4.4448d-4
$ double precision, parameter :: f78 = 1.9674d-2
$ double precision, parameter :: f79 = 7.8406d-7
$ double precision, parameter :: f80 = 4.2371d-8
$ double precision, parameter :: f81 = 1.4411d+2
$ double precision, parameter :: f82 = 4.1028d-3
$ double precision, parameter :: f83 = 1.6112d+1
$ double precision, parameter :: f84 = 1.8382d-3
$ double precision, parameter :: f85 = 2.5539d-7
$ double precision, parameter :: f86 = 1.7948d-7
$ double precision, parameter :: f87 = 3.0839d+1
$ double precision, parameter :: f88 = 4.9114d-7
$ double precision, parameter :: f89 = 7.7670d-2
$ double precision, parameter :: f90 = 1.4097d-3
$ double precision, parameter :: f91 = 2.4889d-3
$ double precision, parameter :: f92 = 3.9650d-6
$ double precision, parameter :: f93 = 1.2261d-6
$ double precision, parameter :: f94 = 5.0981d-7
$ double precision, parameter :: f95 = 6.1349d+1
$ double precision, parameter :: f96 = 4.0094d-3
$ double precision, parameter :: f97 = 5.2160d-7
$ double precision, parameter :: f98 = 2.0413d-2
$ double precision, parameter :: f99 = 6.1458d-1
$ double precision, parameter :: f100 = 2.9391d0
$ double precision, parameter :: f101 = 2.3317d-6
$ double precision, parameter :: f102 = 2.7267d0
$ double precision, parameter :: f103 = 6.9059d-1
$ double precision, parameter :: f104 = 8.3209d-4
$ double precision, parameter :: f105 = 1.6234d-6
$ double precision, parameter :: f106 = 6.5600d+2
$ double precision, parameter :: f107 = 5.2850d0
$ double precision, parameter :: f108 = 1.6916d-7
$ double precision, parameter :: f109 = 1.1184d-3
$ double precision, parameter :: f110 = 1.2386d-3
$ double precision, parameter :: f111 = 3.3045d-5
$ double precision, parameter :: f112 = 1.2130d-6
$ double precision, parameter :: f113 = 2.3745d0
$ double precision, parameter :: f114 = 1.7628d-1
$ double precision, parameter :: f115 = 1.5792d-5
$ double precision, parameter :: f116 = 3.1095d-3
$ double precision, parameter :: f117 = 4.6080d-6
$ double precision, parameter :: f118 = 1.1612d-4
$ double precision, parameter :: f119 = 7.0681d+1
$ double precision, parameter :: f120 = 4.0441d-1
$ double precision, parameter :: f121 = 2.0764d-6
$ double precision, parameter :: f122 = 8.4891d-8
$ double precision, parameter :: f123 = 1.4211d+1
$ double precision, parameter :: f124 = 1.9801d-8
$ double precision, parameter :: f125 = 5.5925d-6
$ double precision, parameter :: f126 = 9.1030d+2
$ double precision, parameter :: f127 = 1.7526d-5
$ double precision, parameter :: f128 = 1.5256d-3
$ double precision, parameter :: f129 = 9.8421d-6
$ double precision, parameter :: f130 = 3.3385d+2
$ double precision, parameter :: f131 = 3.4832d-4
$ double precision, parameter :: f132 = 2.8085d-5
$ double precision, parameter :: f133 = 7.6036d+1
$ double precision, parameter :: f134 = 1.4220d-6
$ double precision, parameter :: f135 = 9.6706d+2
$ double precision, parameter :: f136 = 3.3288d-8
$ double precision, parameter :: f137 = 6.2226d+1
$ double precision, parameter :: f138 = 2.1301d-4
$ double precision, parameter :: f139 = 3.4589d-6
$ double precision, parameter :: f140 = 3.4275d0
$ double precision, parameter :: f141 = 1.0294d-4
$ double precision, parameter :: f142 = 2.2510d-4
$ double precision, parameter :: f143 = 2.0235d-2
$ double precision, parameter :: f144 = 6.9137d-5
$ double precision, parameter :: f145 = 2.5892d-6
$ double precision, parameter :: f146 = 2.0604d-2
$ double precision, parameter :: f147 = 8.4377d0
$ double precision, parameter :: f148 = 1.0854d-7
$ double precision, parameter :: f149 = 1.5702d-8
$ double precision, parameter :: f150 = 1.0649d-2
$ double precision, parameter :: f151 = 8.3470d+1
$ double precision, parameter :: f152 = 1.1396d-1
$ double precision, parameter :: f153 = 3.8538d-7
$ double precision, parameter :: f154 = 8.6322d-2
$ double precision, parameter :: f155 = 3.9351d-3
$ double precision, parameter :: f156 = 7.8829d-4
$ double precision, parameter :: f157 = 3.9029d-6
$ double precision, parameter :: f158 = 4.1649d+1
$ double precision, parameter :: f159 = 1.1542d-5
$ double precision, parameter :: f160 = 2.6041d-8
$ double precision, parameter :: f161 = 1.2426d+1
$ double precision, parameter :: f162 = 3.6037d-3
$ double precision, parameter :: f163 = 1.3568d-1
$ double precision, parameter :: f164 = 1.7576d-8
$ double precision, parameter :: f165 = 3.9027d-1
$ double precision, parameter :: f166 = 1.0708d-7
$ double precision, parameter :: f167 = 1.3116d0
$ double precision, parameter :: f168 = 1.7070d-1
$ double precision, parameter :: f169 = 1.0273d-4
$ double precision, parameter :: f170 = 3.4585d-4
$ double precision, parameter :: f171 = 1.0945d+1
$ double precision, parameter :: f172 = 5.4612d-1
$ double precision, parameter :: f173 = 2.4378d+1
$ double precision, parameter :: f174 = 1.7286d-2
$ double precision, parameter :: f175 = 1.0207d-2
$ double precision, parameter :: f176 = 7.4400d+2
$ double precision, parameter :: f177 = 6.7855d-6
$ double precision, parameter :: f178 = 3.9074d-4
$ double precision, parameter :: f179 = 5.7669d+1
$ double precision, parameter :: f180 = 3.2748d-6
$ double precision, parameter :: f181 = 5.5505d-4
$ double precision, parameter :: f182 = 2.4259d+1
$ double precision, parameter :: f183 = 1.5911d-2
$ double precision, parameter :: f184 = 2.8806d-8
$ double precision, parameter :: f185 = 1.2882d-6
$ double precision, parameter :: f186 = 1.0585d0
$ double precision, parameter :: f187 = 6.4259d-5
$ double precision, parameter :: f188 = 2.4745d+2
$ double precision, parameter :: f189 = 2.3172d-6
$ double precision, parameter :: f190 = 2.2865d-3
$ double precision, parameter :: f191 = 3.6793d-4
$ double precision, parameter :: f192 = 8.3807d+2
$ double precision, parameter :: f193 = 1.7482d-2
$ double precision, parameter :: f194 = 1.0755d-6
$ double precision, parameter :: f195 = 8.1922d-7
$ double precision, parameter :: f196 = 2.0503d-1
$ double precision, parameter :: f197 = 7.5383d-7
$ double precision, parameter :: f198 = 3.6390d-5
$ double precision, parameter :: f199 = 9.1741d+2
$ double precision, parameter :: f200 = 8.2990d-8
$ double precision, parameter :: f201 = 3.8159d-1
$ double precision, parameter :: f202 = 1.0502d+2
$ double precision, parameter :: f203 = 7.8548d-3
$ double precision, parameter :: f204 = 9.1070d0
$ double precision, parameter :: f205 = 1.2212d-3
$ double precision, parameter :: f206 = 3.3555d+2
$ double precision, parameter :: f207 = 4.4731d-1
$ double precision, parameter :: f208 = 6.7363d-8
$ double precision, parameter :: f209 = 1.1507d-3
$ double precision, parameter :: f210 = 1.0980d+1
$ double precision, parameter :: f211 = 2.0108d-1
$ double precision, parameter :: f212 = 5.3916d-4
$ double precision, parameter :: f213 = 1.0144d+2
$ double precision, parameter :: f214 = 5.7926d+1
$ double precision, parameter :: f215 = 2.4816d-8
$ double precision, parameter :: f216 = 5.2560d-3
$ double precision, parameter :: f217 = 6.9958d+2
$ double precision, parameter :: f218 = 3.5382d-6
$ double precision, parameter :: f219 = 3.8585d-5
$ double precision, parameter :: f220 = 5.0267d-5
$ double precision, parameter :: f221 = 3.4384d+2
$ double precision, parameter :: f222 = 1.1623d-2
$ double precision, parameter :: f223 = 4.9837d-5
$ double precision, parameter :: f224 = 8.7548d-4
$ double precision, parameter :: f225 = 7.6480d+2
$ double precision, parameter :: f226 = 5.4657d-6
$ double precision, parameter :: f227 = 9.4107d-2
$ double precision, parameter :: f228 = 5.2782d-2
$ double precision, parameter :: f229 = 3.9928d-1
$ double precision, parameter :: f230 = 8.8659d-3
$ double precision, parameter :: f231 = 8.0458d-7
$ double precision, parameter :: f232 = 2.1437d-8
$ double precision, parameter :: f233 = 1.7455d+1
$ double precision, parameter :: f234 = 1.4914d-8
$ double precision, parameter :: f235 = 1.1264d-7
$ double precision, parameter :: f236 = 3.0126d-4
$ double precision, parameter :: f237 = 2.4858d-4
$ double precision, parameter :: f238 = 1.4742d-7
$ double precision, parameter :: f239 = 4.8798d-5
$ double precision, parameter :: f240 = 7.9276d-1
$ double precision, parameter :: f241 = 1.3397d-2
$ double precision, parameter :: f242 = 3.9593d+2
$ double precision, parameter :: f243 = 8.4427d+1
$ double precision, parameter :: f244 = 2.9808d-2
$ double precision, parameter :: f245 = 1.4986d-6
$ double precision, parameter :: f246 = 2.2166d-4
$ double precision, parameter :: f247 = 1.4468d-2
$ double precision, parameter :: f248 = 3.3981d-3
$ double precision, parameter :: f249 = 4.8886d-8
$ double precision, parameter :: f250 = 2.8809d-8
$ double precision, parameter :: f251 = 5.5756d-4
$ double precision, parameter :: f252 = 6.0768d0
$ double precision, parameter :: f253 = 8.3575d-5
$ double precision, parameter :: f254 = 1.6143d+1
$ double precision, parameter :: f255 = 9.7687d-5
$ double precision, parameter :: f256 = 2.6262d-6
$ double precision, parameter :: f257 = 9.2903d-2
$ double precision, parameter :: f258 = 1.3565d-5
$ double precision, parameter :: f259 = 1.6618d+2
$ double precision, parameter :: f260 = 3.4452d-3
$ double precision, parameter :: f261 = 1.8034d-6
$ double precision, parameter :: f262 = 2.5255d-2
$ double precision, parameter :: f263 = 9.3993d-4
$ double precision, parameter :: f264 = 4.6785d-4
$ double precision, parameter :: f265 = 2.4484d-5
$ double precision, parameter :: f266 = 1.8119d+2
$ double precision, parameter :: f267 = 3.4325d-4
$ double precision, parameter :: f268 = 6.9524d+2
$ double precision, parameter :: f269 = 7.2836d-6
$ double precision, parameter :: f270 = 9.2201d-6
$ double precision, parameter :: f271 = 5.2072d-5
$ double precision, parameter :: f272 = 3.9358d-1
$ double precision, parameter :: f273 = 1.3538d-3
$ double precision, parameter :: f274 = 2.1041d0
$ double precision, parameter :: f275 = 9.9695d-3
$ double precision, parameter :: f276 = 3.1346d-4
$ double precision, parameter :: f277 = 4.4718d-3
$ double precision, parameter :: f278 = 6.9752d-1
$ double precision, parameter :: f279 = 3.3052d-5
$ double precision, parameter :: f280 = 1.3880d-5
$ double precision, parameter :: f281 = 3.6959d+1
$ double precision, parameter :: f282 = 1.4114d-7
$ double precision, parameter :: f283 = 6.5404d-8
$ double precision, parameter :: f284 = 2.2154d+1
$ double precision, parameter :: f285 = 3.2031d-3
$ double precision, parameter :: f286 = 6.0360d-5
$ double precision, parameter :: f287 = 3.8174d-5
$ double precision, parameter :: f288 = 1.6816d-5
$ double precision, parameter :: f289 = 3.2042d-7
$ double precision, parameter :: f290 = 2.3720d-6
$ double precision, parameter :: f291 = 2.4226d-7
$ double precision, parameter :: f292 = 4.2048d0
$ double precision, parameter :: f293 = 2.2714d-6
$ double precision, parameter :: f294 = 6.9896d-7
$ double precision, parameter :: f295 = 5.2188d-4
$ double precision, parameter :: f296 = 6.2266d0
$ double precision, parameter :: f297 = 5.2261d-7
$ double precision, parameter :: f298 = 3.1766d-3
$ double precision, parameter :: f299 = 2.1210d-1
$ double precision, parameter :: f300 = 7.7963d-6
$ double precision, parameter :: f301 = 4.4386d-7
$ double precision, parameter :: f302 = 1.7867d-4
$ double precision, parameter :: f303 = 1.2641d-1
$ double precision, parameter :: f304 = 1.9160d0
$ double precision, parameter :: f305 = 1.0915d-3
$ double precision, parameter :: f306 = 2.8902d0
$ double precision, parameter :: f307 = 2.0846d-8
$ double precision, parameter :: f308 = 1.0324d-1
$ double precision, parameter :: f309 = 2.2233d-6
$ double precision, parameter :: f310 = 2.1627d-2
$ double precision, parameter :: f311 = 1.3899d0
$ double precision, parameter :: f312 = 7.0191d+1
$ double precision, parameter :: f313 = 1.9215d+2
$ double precision, parameter :: f314 = 9.3090d-7
$ double precision, parameter :: f315 = 2.6977d+1

# Electron Collision Reaction
e + CH4 => e + CH4(v24)		! f0 * Bolsig+ CH4 -> CH4(v24)
e + CH4 => e + CH4(v13)		! f1 * Bolsig+ CH4 -> CH4(v13)
e + C2H6 => e + C2H6(v24)		! f2 * Bolsig+ C2H6 -> C2H6(v24)
e + C2H6 => e + C2H6(v13)		! f3 * Bolsig+ C2H6 -> C2H6(v13)
e + C2H4 => e + C2H4(v1)		! f4 * Bolsig+ C2H4 -> C2H4(v1)
e + C2H4 => e + C2H4(v2)		! f5 * Bolsig+ C2H4 -> C2H4(v2)
e + C2H2 => e + C2H2(v5)		! f6 * Bolsig+ C2H2 -> C2H2(v5)
e + C2H2 => e + C2H2(v2)		! f7 * Bolsig+ C2H2 -> C2H2(v2)
e + C2H2 => e + C2H2(v13)		! f8 * Bolsig+ C2H2 -> C2H2(v13)
e + C3H8 => e + C3H8(v1)		! f9 * Bolsig+ C3H8 -> C3H8(v1)
e + C3H8 => e + C3H8(v2)		! f10 * Bolsig+ C3H8 -> C3H8(v2)
e + C3H6 => e + C3H6(v)		! f11 * Bolsig+ C3H6 -> C3H6(v)
e + CH4 => e + CH3 + H		! f12 * Bolsig+ CH4 -> CH3 H
e + CH4(v24) => e + CH3 + H		! f12 * Bolsig+ CH4(v24) -> CH3 H
e + CH4(v13) => e + CH3 + H		! f12 * Bolsig+ CH4(v13) -> CH3 H
e + CH4 => e + CH2 + H2		! f13 * Bolsig+ CH4 -> CH2 H2
e + CH4(v24) => e + CH2 + H2		! f13 * Bolsig+ CH4(v24) -> CH2 H2
e + CH4(v13) => e + CH2 + H2		! f13 * Bolsig+ CH4(v13) -> CH2 H2
e + CH4 => e + CH + H2 + H		! f14 * Bolsig+ CH4 -> CH H2 H
e + CH4(v24) => e + CH + H2 + H		! f14 * Bolsig+ CH4(v24) -> CH H2 H
e + CH4(v13) => e + CH + H2 + H		! f14 * Bolsig+ CH4(v13) -> CH H2 H
e + CH4 => e + C + H2 + H2		! f15 * Bolsig+ CH4 -> C H2 H2
e + CH4(v24) => e + C + H2 + H2		! f15 * Bolsig+ CH4(v24) -> C H2 H2
e + CH4(v13) => e + C + H2 + H2		! f15 * Bolsig+ CH4(v13) -> C H2 H2
e + CH3 => e + CH2 + H		! f16 * Bolsig+ CH3 -> CH2 H
e + CH3 => e + CH + H2		! f17 * Bolsig+ CH3 -> CH H2
e + CH3 => e + C + H2 + H		! f18 * Bolsig+ CH3 -> C H2 H
e + CH2 => e + CH + H		! f19 * Bolsig+ CH2 -> CH H
e + CH2 => e + C + H2		! f20 * Bolsig+ CH2 -> C H2
e + CH2 => e + C + H + H		! f21 * Bolsig+ CH2 -> C H H
e + CH => e + C + H		! f22 * Bolsig+ CH -> C H
e + CH4 => e + e + CH4^+		! f23 * Bolsig+ CH4 -> CH4^+
e + CH4(v24) => e + e + CH4^+		! f23 * Bolsig+ CH4(v24) -> CH4^+
e + CH4(v13) => e + e + CH4^+		! f23 * Bolsig+ CH4(v13) -> CH4^+
e + CH4 => e + e + H + CH3^+		! f24 * Bolsig+ CH4 -> H CH3^+
e + CH4(v24) => e + e + H + CH3^+		! f24 * Bolsig+ CH4(v24) -> H CH3^+
e + CH4(v13) => e + e + H + CH3^+		! f24 * Bolsig+ CH4(v13) -> H CH3^+
e + CH4 => e + e + H2 + CH2^+		! f25 * Bolsig+ CH4 -> H2 CH2^+
e + CH4(v24) => e + e + H2 + CH2^+		! f25 * Bolsig+ CH4(v24) -> H2 CH2^+
e + CH4(v13) => e + e + H2 + CH2^+		! f25 * Bolsig+ CH4(v13) -> H2 CH2^+
e + CH4 => e + e + H2 + H + CH^+		! f26 * Bolsig+ CH4 -> H2 H CH^+
e + CH4(v24) => e + e + H2 + H + CH^+		! f26 * Bolsig+ CH4(v24) -> H2 H CH^+
e + CH4(v13) => e + e + H2 + H + CH^+		! f26 * Bolsig+ CH4(v13) -> H2 H CH^+
e + CH3 => e + e + CH3^+		! f27 * Bolsig+ CH3 -> CH3^+
e + CH3 => e + e + H + CH2^+		! f28 * Bolsig+ CH3 -> H CH2^+
e + CH3 => e + e + H2 + CH^+		! f29 * Bolsig+ CH3 -> H2 CH^+
e + CH2 => e + e + CH2^+		! f30 * Bolsig+ CH2 -> CH2^+
e + CH2 => e + e + H + CH^+		! f31 * Bolsig+ CH2 -> H CH^+
e + CH => e + e + CH^+		! f32 * Bolsig+ CH -> CH^+
e + C2H6 => e + C2H5 + H		! f33 * Bolsig+ C2H6 -> C2H5 H
e + C2H6(v24) => e + C2H5 + H		! f33 * Bolsig+ C2H6(v24) -> C2H5 H
e + C2H6(v13) => e + C2H5 + H		! f33 * Bolsig+ C2H6(v13) -> C2H5 H
e + C2H6 => e + C2H4 + H2		! f34 * Bolsig+ C2H6 -> C2H4 H2
e + C2H6(v24) => e + C2H4 + H2		! f34 * Bolsig+ C2H6(v24) -> C2H4 H2
e + C2H6(v13) => e + C2H4 + H2		! f34 * Bolsig+ C2H6(v13) -> C2H4 H2
e + C2H6 => e + C2H3 + H2 + H		! f35 * Bolsig+ C2H6 -> C2H3 H2 H
e + C2H6(v24) => e + C2H3 + H2 + H		! f35 * Bolsig+ C2H6(v24) -> C2H3 H2 H
e + C2H6(v13) => e + C2H3 + H2 + H		! f35 * Bolsig+ C2H6(v13) -> C2H3 H2 H
e + C2H6 => e + C2H2 + H2 + H2		! f36 * Bolsig+ C2H6 -> C2H2 H2 H2
e + C2H6(v24) => e + C2H2 + H2 + H2		! f36 * Bolsig+ C2H6(v24) -> C2H2 H2 H2
e + C2H6(v13) => e + C2H2 + H2 + H2		! f36 * Bolsig+ C2H6(v13) -> C2H2 H2 H2
e + C2H6 => e + CH4 + CH2		! f37 * Bolsig+ C2H6 -> CH4 CH2
e + C2H6(v24) => e + CH4 + CH2		! f37 * Bolsig+ C2H6(v24) -> CH4 CH2
e + C2H6(v13) => e + CH4 + CH2		! f37 * Bolsig+ C2H6(v13) -> CH4 CH2
e + C2H6 => e + CH3 + CH3		! f38 * Bolsig+ C2H6 -> CH3 CH3
e + C2H6(v24) => e + CH3 + CH3		! f38 * Bolsig+ C2H6(v24) -> CH3 CH3
e + C2H6(v13) => e + CH3 + CH3		! f38 * Bolsig+ C2H6(v13) -> CH3 CH3
e + C2H5 => e + C2H4 + H		! f39 * Bolsig+ C2H5 -> C2H4 H
e + C2H5 => e + C2H3 + H2		! f40 * Bolsig+ C2H5 -> C2H3 H2
e + C2H5 => e + C2H3 + H + H		! f41 * Bolsig+ C2H5 -> C2H3 H H
e + C2H5 => e + C2H2 + H2 + H		! f42 * Bolsig+ C2H5 -> C2H2 H2 H
e + C2H5 => e + CH4 + CH		! f43 * Bolsig+ C2H5 -> CH4 CH
e + C2H5 => e + CH3 + CH2		! f44 * Bolsig+ C2H5 -> CH3 CH2
e + C2H4 => e + C2H3 + H		! f45 * Bolsig+ C2H4 -> C2H3 H
e + C2H4(v1) => e + C2H3 + H		! f45 * Bolsig+ C2H4(v1) -> C2H3 H
e + C2H4(v2) => e + C2H3 + H		! f45 * Bolsig+ C2H4(v2) -> C2H3 H
e + C2H4 => e + C2H2 + H2		! f46 * Bolsig+ C2H4 -> C2H2 H2
e + C2H4(v1) => e + C2H2 + H2		! f46 * Bolsig+ C2H4(v1) -> C2H2 H2
e + C2H4(v2) => e + C2H2 + H2		! f46 * Bolsig+ C2H4(v2) -> C2H2 H2
e + C2H4 => e + C2H2 + H + H		! f47 * Bolsig+ C2H4 -> C2H2 H H
e + C2H4(v1) => e + C2H2 + H + H		! f47 * Bolsig+ C2H4(v1) -> C2H2 H H
e + C2H4(v2) => e + C2H2 + H + H		! f47 * Bolsig+ C2H4(v2) -> C2H2 H H
e + C2H4 => e + CH3 + CH		! f48 * Bolsig+ C2H4 -> CH3 CH
e + C2H4(v1) => e + CH3 + CH		! f48 * Bolsig+ C2H4(v1) -> CH3 CH
e + C2H4(v2) => e + CH3 + CH		! f48 * Bolsig+ C2H4(v2) -> CH3 CH
e + C2H4 => e + CH2 + CH2		! f49 * Bolsig+ C2H4 -> CH2 CH2
e + C2H4(v1) => e + CH2 + CH2		! f49 * Bolsig+ C2H4(v1) -> CH2 CH2
e + C2H4(v2) => e + CH2 + CH2		! f49 * Bolsig+ C2H4(v2) -> CH2 CH2
e + C2H3 => e + C2H2 + H		! f50 * Bolsig+ C2H3 -> C2H2 H
e + C2H3 => e + CH2 + CH		! f51 * Bolsig+ C2H3 -> CH2 CH
e + C2H2 => e + CH + CH		! f52 * Bolsig+ C2H2 -> CH CH
e + C2H2(v5) => e + CH + CH		! f52 * Bolsig+ C2H2(v5) -> CH CH
e + C2H2(v2) => e + CH + CH		! f52 * Bolsig+ C2H2(v2) -> CH CH
e + C2H2(v13) => e + CH + CH		! f52 * Bolsig+ C2H2(v13) -> CH CH
e + C2H6 => e + e + C2H6^+		! f53 * Bolsig+ C2H6 -> C2H6^+
e + C2H6(v24) => e + e + C2H6^+		! f53 * Bolsig+ C2H6(v24) -> C2H6^+
e + C2H6(v13) => e + e + C2H6^+		! f53 * Bolsig+ C2H6(v13) -> C2H6^+
e + C2H6 => e + e + H + C2H5^+		! f54 * Bolsig+ C2H6 -> H C2H5^+
e + C2H6(v24) => e + e + H + C2H5^+		! f54 * Bolsig+ C2H6(v24) -> H C2H5^+
e + C2H6(v13) => e + e + H + C2H5^+		! f54 * Bolsig+ C2H6(v13) -> H C2H5^+
e + C2H6 => e + e + H2 + C2H4^+		! f55 * Bolsig+ C2H6 -> H2 C2H4^+
e + C2H6(v24) => e + e + H2 + C2H4^+		! f55 * Bolsig+ C2H6(v24) -> H2 C2H4^+
e + C2H6(v13) => e + e + H2 + C2H4^+		! f55 * Bolsig+ C2H6(v13) -> H2 C2H4^+
e + C2H6 => e + e + H2 + H + C2H3^+		! f56 * Bolsig+ C2H6 -> H2 H C2H3^+
e + C2H6(v24) => e + e + H2 + H + C2H3^+		! f56 * Bolsig+ C2H6(v24) -> H2 H C2H3^+
e + C2H6(v13) => e + e + H2 + H + C2H3^+		! f56 * Bolsig+ C2H6(v13) -> H2 H C2H3^+
e + C2H6 => e + e + H2 + H2 + C2H2^+		! f57 * Bolsig+ C2H6 -> H2 H2 C2H2^+
e + C2H6(v24) => e + e + H2 + H2 + C2H2^+		! f57 * Bolsig+ C2H6(v24) -> H2 H2 C2H2^+
e + C2H6(v13) => e + e + H2 + H2 + C2H2^+		! f57 * Bolsig+ C2H6(v13) -> H2 H2 C2H2^+
e + C2H6 => e + e + CH3 + CH3^+		! f58 * Bolsig+ C2H6 -> CH3 CH3^+
e + C2H6(v24) => e + e + CH3 + CH3^+		! f58 * Bolsig+ C2H6(v24) -> CH3 CH3^+
e + C2H6(v13) => e + e + CH3 + CH3^+		! f58 * Bolsig+ C2H6(v13) -> CH3 CH3^+
e + C2H6 => e + e + CH4 + CH2^+		! f59 * Bolsig+ C2H6 -> CH4 CH2^+
e + C2H6(v24) => e + e + CH4 + CH2^+		! f59 * Bolsig+ C2H6(v24) -> CH4 CH2^+
e + C2H6(v13) => e + e + CH4 + CH2^+		! f59 * Bolsig+ C2H6(v13) -> CH4 CH2^+
e + C2H5 => e + e + C2H5^+		! f60 * Bolsig+ C2H5 -> C2H5^+
e + C2H5 => e + e + H + C2H4^+		! f61 * Bolsig+ C2H5 -> H C2H4^+
e + C2H5 => e + e + H2 + C2H3^+		! f62 * Bolsig+ C2H5 -> H2 C2H3^+
e + C2H5 => e + e + H2 + H + C2H2^+		! f63 * Bolsig+ C2H5 -> H2 H C2H2^+
e + C2H5 => e + e + CH2 + CH3^+		! f64 * Bolsig+ C2H5 -> CH2 CH3^+
e + C2H5 => e + e + CH3 + CH2^+		! f65 * Bolsig+ C2H5 -> CH3 CH2^+
e + C2H5 => e + e + CH4 + CH^+		! f66 * Bolsig+ C2H5 -> CH4 CH^+
e + C2H4 => e + e + C2H4^+		! f67 * Bolsig+ C2H4 -> C2H4^+
e + C2H4(v1) => e + e + C2H4^+		! f67 * Bolsig+ C2H4(v1) -> C2H4^+
e + C2H4(v2) => e + e + C2H4^+		! f67 * Bolsig+ C2H4(v2) -> C2H4^+
e + C2H4 => e + e + H + C2H3^+		! f68 * Bolsig+ C2H4 -> H C2H3^+
e + C2H4(v1) => e + e + H + C2H3^+		! f68 * Bolsig+ C2H4(v1) -> H C2H3^+
e + C2H4(v2) => e + e + H + C2H3^+		! f68 * Bolsig+ C2H4(v2) -> H C2H3^+
e + C2H4 => e + e + CH + CH3^+		! f69 * Bolsig+ C2H4 -> CH CH3^+
e + C2H4(v1) => e + e + CH + CH3^+		! f69 * Bolsig+ C2H4(v1) -> CH CH3^+
e + C2H4(v2) => e + e + CH + CH3^+		! f69 * Bolsig+ C2H4(v2) -> CH CH3^+
e + C2H4 => e + e + CH2 + CH2^+		! f70 * Bolsig+ C2H4 -> CH2 CH2^+
e + C2H4(v1) => e + e + CH2 + CH2^+		! f70 * Bolsig+ C2H4(v1) -> CH2 CH2^+
e + C2H4(v2) => e + e + CH2 + CH2^+		! f70 * Bolsig+ C2H4(v2) -> CH2 CH2^+
e + C2H4 => e + e + CH3 + CH^+		! f71 * Bolsig+ C2H4 -> CH3 CH^+
e + C2H4(v1) => e + e + CH3 + CH^+		! f71 * Bolsig+ C2H4(v1) -> CH3 CH^+
e + C2H4(v2) => e + e + CH3 + CH^+		! f71 * Bolsig+ C2H4(v2) -> CH3 CH^+
e + C2H3 => e + e + C2H3^+		! f72 * Bolsig+ C2H3 -> C2H3^+
e + C2H3 => e + e + H + C2H2^+		! f73 * Bolsig+ C2H3 -> H C2H2^+
e + C2H3 => e + e + CH + CH2^+		! f74 * Bolsig+ C2H3 -> CH CH2^+
e + C2H3 => e + e + CH2 + CH^+		! f75 * Bolsig+ C2H3 -> CH2 CH^+
e + C2H3 => e + e + C2H2 + H^+		! f76 * Bolsig+ C2H3 -> C2H2 H^+
e + C2H2 => e + e + C2H2^+		! f77 * Bolsig+ C2H2 -> C2H2^+
e + C2H2(v5) => e + e + C2H2^+		! f77 * Bolsig+ C2H2(v5) -> C2H2^+
e + C2H2(v2) => e + e + C2H2^+		! f77 * Bolsig+ C2H2(v2) -> C2H2^+
e + C2H2(v13) => e + e + C2H2^+		! f77 * Bolsig+ C2H2(v13) -> C2H2^+
e + C2H2 => e + e + CH + CH^+		! f78 * Bolsig+ C2H2 -> CH CH^+
e + C2H2(v5) => e + e + CH + CH^+		! f78 * Bolsig+ C2H2(v5) -> CH CH^+
e + C2H2(v2) => e + e + CH + CH^+		! f78 * Bolsig+ C2H2(v2) -> CH CH^+
e + C2H2(v13) => e + e + CH + CH^+		! f78 * Bolsig+ C2H2(v13) -> CH CH^+
e + C3H8 => e + C3H7 + H		! f79 * Bolsig+ C3H8 -> C3H7 H
e + C3H8(v1) => e + C3H7 + H		! f79 * Bolsig+ C3H8(v1) -> C3H7 H
e + C3H8(v2) => e + C3H7 + H		! f79 * Bolsig+ C3H8(v2) -> C3H7 H
e + C3H8 => e + C3H6 + H2		! f80 * Bolsig+ C3H8 -> C3H6 H2
e + C3H8(v1) => e + C3H6 + H2		! f80 * Bolsig+ C3H8(v1) -> C3H6 H2
e + C3H8(v2) => e + C3H6 + H2		! f80 * Bolsig+ C3H8(v2) -> C3H6 H2
e + C3H7 => e + C3H6 + H		! f81 * Bolsig+ C3H7 -> C3H6 H
e + C3H8 => e + e + C3H8^+		! f82 * Bolsig+ C3H8 -> C3H8^+
e + C3H8(v1) => e + e + C3H8^+		! f82 * Bolsig+ C3H8(v1) -> C3H8^+
e + C3H8(v2) => e + e + C3H8^+		! f82 * Bolsig+ C3H8(v2) -> C3H8^+
e + C3H8 => e + e + H + C3H7^+		! f83 * Bolsig+ C3H8 -> H C3H7^+
e + C3H8(v1) => e + e + H + C3H7^+		! f83 * Bolsig+ C3H8(v1) -> H C3H7^+
e + C3H8(v2) => e + e + H + C3H7^+		! f83 * Bolsig+ C3H8(v2) -> H C3H7^+
e + C3H8 => e + e + H2 + C3H6^+		! f84 * Bolsig+ C3H8 -> H2 C3H6^+
e + C3H8(v1) => e + e + H2 + C3H6^+		! f84 * Bolsig+ C3H8(v1) -> H2 C3H6^+
e + C3H8(v2) => e + e + H2 + C3H6^+		! f84 * Bolsig+ C3H8(v2) -> H2 C3H6^+
e + C3H7 => e + e + C3H7^+		! f85 * Bolsig+ C3H7 -> C3H7^+
e + C3H7 => e + e + H + C3H6^+		! f86 * Bolsig+ C3H7 -> H C3H6^+
e + C3H6 => e + e + C3H6^+		! f87 * Bolsig+ C3H6 -> C3H6^+
e + C3H6(v) => e + e + C3H6^+		! f87 * Bolsig+ C3H6(v) -> C3H6^+
e + C3H6 => e + C2H2 + CH4		! f88 * Bolsig+ C3H6 -> C2H2 CH4
e + C3H6(v) => e + C2H2 + CH4		! f88 * Bolsig+ C3H6(v) -> C2H2 CH4
e + C3H6 => e + e + C2H2 + CH4^+		! f89 * Bolsig+ C3H6 -> C2H2 CH4^+
e + C3H6(v) => e + e + C2H2 + CH4^+		! f89 * Bolsig+ C3H6(v) -> C2H2 CH4^+

# Ion Recombination Reaction
e + e + CH^+ => e + CH		! f90 * 1.00d0
e + e + CH2^+ => e + CH2		! f91 * 1.00d0
e + e + CH3^+ => e + CH3		! f92 * 1.00d0
e + e + CH4^+ => e + CH4		! f93 * 1.00d0
e + e + C2H2^+ => e + C2H2		! f94 * 1.00d0
e + e + C2H3^+ => e + C2H3		! f95 * 1.00d0
e + e + C2H4^+ => e + C2H4		! f96 * 1.00d0
e + e + C2H5^+ => e + C2H5		! f97 * 1.00d0
e + e + C2H6^+ => e + C2H6		! f98 * 1.00d0
e + e + C3H6^+ => e + C3H6		! f99 * 1.00d0
e + e + C3H7^+ => e + C3H7		! f100 * 1.00d0
e + e + C3H8^+ => e + C3H8		! f101 * 1.00d0

# Gas Phase Reaction
e + CH4^+ => CH3 + H		! f102 * 1.18d-08 * (300./Tgas)**0.5
e + CH4^+ => CH2 + H + H		! f103 * 2.42d-08 * (300./Tgas)**0.5
e + CH4^+ => CH + H2 + H		! f104 * 1.41d-08 * (300./Tgas)**0.5
e + CH3^+ => CH2 + H		! f105 * 2.25d-08 * (300./Tgas)**0.5
e + CH3^+ => CH + H2		! f106 * 7.88d-09 * (300./Tgas)**0.5
e + CH3^+ => CH + H + H		! f107 * 9.00d-09 * (300./Tgas)**0.5
e + CH3^+ => C + H2 + H		! f108 * 1.69d-08 * (300./Tgas)**0.5
e + CH2^+ => CH + H		! f109 * 1.00d-08 * (300./Tgas)**0.5
e + CH2^+ => C + H2		! f110 * 4.82d-09 * (300./Tgas)**0.5
e + CH2^+ => C + H + H		! f111 * 2.53d-08 * (300./Tgas)**0.5
e + CH^+ => C + H		! f112 * 3.23d-08 * (300./Tgas)**0.42
e + C2H6^+ => C2H5 + H		! f113 * 2.19d-08 * (300./Tgas)**0.71
e + C2H6^+ => C2H4 + H + H		! f114 * 3.36d-08 * (300./Tgas)**0.71
e + C2H5^+ => C2H4 + H		! f115 * 7.70d-09 * (300./Tgas)**0.71
e + C2H5^+ => C2H3 + H + H		! f116 * 1.92d-08 * (300./Tgas)**0.71
e + C2H5^+ => C2H2 + H2 + H		! f117 * 1.60d-08 * (300./Tgas)**0.71
e + C2H5^+ => C2H2 + H + H + H		! f118 * 8.98d-09 * (300./Tgas)**0.71
e + C2H5^+ => CH3 + CH2		! f119 * 9.62d-09 * (300./Tgas)**0.71
e + C2H4^+ => C2H3 + H		! f120 * 8.29d-09 * (300./Tgas)**0.71
e + C2H4^+ => C2H2 + H + H		! f121 * 3.43d-08 * (300./Tgas)**0.71
e + C2H3^+ => C2H2 + H		! f122 * 1.34d-08 * (300./Tgas)**0.71
e + C2H2^+ => CH + CH		! f123 * 4.87d-09 * (300./Tgas)**0.71
e + H2^+ => H + H		! f124 * 3.17d21/(6.022d23 * Te**4.5)
e + H3^+ => H + H2		! f125 * 3.17d21/(6.022d23 * Te**4.5)
H2 + H2^+ => H + H3^+		! f126 * 2.11d-09
C2H6 + CH4^+ => CH4 + H2 + C2H4^+		! f127 * 1.91d-9
C2H6(v24) + CH4^+ => CH4 + H2 + C2H4^+		! f127 * 1.91d-9
C2H6(v13) + CH4^+ => CH4 + H2 + C2H4^+		! f127 * 1.91d-9
C2H4 + CH4^+ => CH3 + C2H5^+		! f128 * 4.23d-10