ELEMENTS
e C H
END

SPECIES
e C CH CH^+ CH2 CH2^+ CH3 CH3^+ CH4 CH4(v13) CH4(v24) CH4^+ C2H2 C2H2(v13) C2H2(v2) C2H2(v5) C2H2^+ C2H3 C2H3^+ C2H4 C2H4(v1) C2H4(v2) C2H4^+ C2H5 C2H5^+
C2H6 C2H6(v13) C2H6(v24) C2H6^+ C3H5 C3H6 C3H6(v) C3H6^+ C3H7 C3H7^+ C3H8 C3H8(v1) C3H8(v2) C3H8^+ C4H9 C4H9H C2H C5H12 H H2 H2^+ H3^+ H^+
END

BOLSIG
CH CH2 CH3 CH4 CH4(v13) CH4(v24) C2H2 C2H2(v13) C2H2(v2) C2H2(v5) C2H3 C2H4 C2H4(v1) C2H4(v2) C2H5 C2H6 C2H6(v13) C2H6(v24) C3H6 C3H6(v) C3H7 C3H8 C3H8(v1) C3H8(v2)
END

REACTIONS
# Gas Constant
$ double precision, parameter :: R = 8.314d-3

# Compensation Parameters
$ double precision, parameter :: f0 = 1.1162d-8
$ double precision, parameter :: f1 = 5.5242d+1
$ double precision, parameter :: f2 = 2.4895d-3
$ double precision, parameter :: f3 = 4.0961d+1
$ double precision, parameter :: f4 = 3.7458d-8
$ double precision, parameter :: f5 = 1.6181d-6
$ double precision, parameter :: f6 = 1.5393d-4
$ double precision, parameter :: f7 = 5.6838d+1
$ double precision, parameter :: f8 = 2.4643d0
$ double precision, parameter :: f9 = 1.0008d-7
$ double precision, parameter :: f10 = 7.9078d-1
$ double precision, parameter :: f11 = 3.2213d+2
$ double precision, parameter :: f12 = 9.1279d-3
$ double precision, parameter :: f13 = 7.9595d+1
$ double precision, parameter :: f14 = 2.1693d-4
$ double precision, parameter :: f15 = 4.4922d+2
$ double precision, parameter :: f16 = 1.0816d-1
$ double precision, parameter :: f17 = 1.6395d-6
$ double precision, parameter :: f18 = 7.1887d-1
$ double precision, parameter :: f19 = 3.0400d-6
$ double precision, parameter :: f20 = 7.9589d-4
$ double precision, parameter :: f21 = 1.2551d-8
$ double precision, parameter :: f22 = 1.3058d-4
$ double precision, parameter :: f23 = 1.0683d-1
$ double precision, parameter :: f24 = 3.4788d-1
$ double precision, parameter :: f25 = 1.0690d-5
$ double precision, parameter :: f26 = 1.8649d-7
$ double precision, parameter :: f27 = 5.0462d-1
$ double precision, parameter :: f28 = 5.3876d-7
$ double precision, parameter :: f29 = 7.5845d+2
$ double precision, parameter :: f30 = 4.3869d-6
$ double precision, parameter :: f31 = 1.6868d-5
$ double precision, parameter :: f32 = 1.7103d-8
$ double precision, parameter :: f33 = 9.5494d-5
$ double precision, parameter :: f34 = 6.6662d-5
$ double precision, parameter :: f35 = 1.0678d-3
$ double precision, parameter :: f36 = 1.0696d-2
$ double precision, parameter :: f37 = 6.1446d0
$ double precision, parameter :: f38 = 7.2813d+2
$ double precision, parameter :: f39 = 5.3757d-7
$ double precision, parameter :: f40 = 1.1245d-7
$ double precision, parameter :: f41 = 6.6549d-6
$ double precision, parameter :: f42 = 2.7039d-2
$ double precision, parameter :: f43 = 6.9749d-4
$ double precision, parameter :: f44 = 4.2814d-1
$ double precision, parameter :: f45 = 4.7669d+2
$ double precision, parameter :: f46 = 7.4951d0
$ double precision, parameter :: f47 = 4.1087d-5
$ double precision, parameter :: f48 = 9.9460d-6
$ double precision, parameter :: f49 = 2.8647d-4
$ double precision, parameter :: f50 = 1.8161d-6
$ double precision, parameter :: f51 = 2.1226d+1
$ double precision, parameter :: f52 = 2.0475d-3
$ double precision, parameter :: f53 = 1.8343d+1
$ double precision, parameter :: f54 = 1.9975d-4
$ double precision, parameter :: f55 = 1.2150d-5
$ double precision, parameter :: f56 = 2.7755d-7
$ double precision, parameter :: f57 = 1.9160d-6
$ double precision, parameter :: f58 = 2.1612d-5
$ double precision, parameter :: f59 = 3.5144d-1
$ double precision, parameter :: f60 = 1.8421d-6
$ double precision, parameter :: f61 = 1.8681d0
$ double precision, parameter :: f62 = 6.4191d+1
$ double precision, parameter :: f63 = 1.4840d-5
$ double precision, parameter :: f64 = 3.9275d-5
$ double precision, parameter :: f65 = 1.6195d-4
$ double precision, parameter :: f66 = 1.2583d-5
$ double precision, parameter :: f67 = 2.9897d-1
$ double precision, parameter :: f68 = 1.1420d+1
$ double precision, parameter :: f69 = 1.1223d-3
$ double precision, parameter :: f70 = 2.3689d-4
$ double precision, parameter :: f71 = 2.6778d-6
$ double precision, parameter :: f72 = 2.8600d-1
$ double precision, parameter :: f73 = 4.8152d-4
$ double precision, parameter :: f74 = 1.4206d+1
$ double precision, parameter :: f75 = 1.1453d+2
$ double precision, parameter :: f76 = 4.4157d-4
$ double precision, parameter :: f77 = 6.5916d+1
$ double precision, parameter :: f78 = 1.1661d-2
$ double precision, parameter :: f79 = 1.0376d+2
$ double precision, parameter :: f80 = 1.4465d-7
$ double precision, parameter :: f81 = 1.0347d-8
$ double precision, parameter :: f82 = 1.4580d-2
$ double precision, parameter :: f83 = 4.2512d-1
$ double precision, parameter :: f84 = 2.2936d-6
$ double precision, parameter :: f85 = 3.7631d-1
$ double precision, parameter :: f86 = 3.8766d-8
$ double precision, parameter :: f87 = 3.6768d+2
$ double precision, parameter :: f88 = 3.2974d-4
$ double precision, parameter :: f89 = 1.9177d-6
$ double precision, parameter :: f90 = 3.8385d+2
$ double precision, parameter :: f91 = 1.4202d+1
$ double precision, parameter :: f92 = 1.1173d-3
$ double precision, parameter :: f93 = 2.8424d+1
$ double precision, parameter :: f94 = 4.4993d-8
$ double precision, parameter :: f95 = 2.5238d-6
$ double precision, parameter :: f96 = 6.0769d-3
$ double precision, parameter :: f97 = 1.2893d+1
$ double precision, parameter :: f98 = 3.1750d-7
$ double precision, parameter :: f99 = 1.2387d-5
$ double precision, parameter :: f100 = 3.3441d+2
$ double precision, parameter :: f101 = 2.1218d-6
$ double precision, parameter :: f102 = 7.5838d0
$ double precision, parameter :: f103 = 4.4972d+1
$ double precision, parameter :: f104 = 9.9004d-6
$ double precision, parameter :: f105 = 6.2743d+2
$ double precision, parameter :: f106 = 2.0172d-6
$ double precision, parameter :: f107 = 1.0181d-1
$ double precision, parameter :: f108 = 5.5967d-8
$ double precision, parameter :: f109 = 2.7739d-3
$ double precision, parameter :: f110 = 3.0745d0
$ double precision, parameter :: f111 = 2.5736d-7
$ double precision, parameter :: f112 = 4.2894d-3
$ double precision, parameter :: f113 = 1.4317d-5
$ double precision, parameter :: f114 = 1.8160d-7
$ double precision, parameter :: f115 = 1.5274d-5
$ double precision, parameter :: f116 = 1.4068d-1
$ double precision, parameter :: f117 = 3.0846d-2
$ double precision, parameter :: f118 = 3.3668d-2
$ double precision, parameter :: f119 = 1.4938d-5
$ double precision, parameter :: f120 = 1.9234d-1
$ double precision, parameter :: f121 = 1.8362d-1
$ double precision, parameter :: f122 = 3.6010d-5
$ double precision, parameter :: f123 = 6.5897d-2
$ double precision, parameter :: f124 = 4.4213d-2
$ double precision, parameter :: f125 = 7.4809d-5
$ double precision, parameter :: f126 = 2.4369d-3
$ double precision, parameter :: f127 = 1.0038d+2
$ double precision, parameter :: f128 = 3.1697d-4
$ double precision, parameter :: f129 = 9.1801d+1
$ double precision, parameter :: f130 = 2.2139d-5
$ double precision, parameter :: f131 = 7.5436d-2
$ double precision, parameter :: f132 = 5.1471d0
$ double precision, parameter :: f133 = 4.6856d-3
$ double precision, parameter :: f134 = 2.3868d-6
$ double precision, parameter :: f135 = 3.3067d+2
$ double precision, parameter :: f136 = 7.4485d-1
$ double precision, parameter :: f137 = 5.0622d+2
$ double precision, parameter :: f138 = 8.0758d-7
$ double precision, parameter :: f139 = 1.8790d+1
$ double precision, parameter :: f140 = 4.7031d-2
$ double precision, parameter :: f141 = 2.5240d-4
$ double precision, parameter :: f142 = 3.6139d-5
$ double precision, parameter :: f143 = 5.6906d-5
$ double precision, parameter :: f144 = 7.5668d+2
$ double precision, parameter :: f145 = 7.3849d-1
$ double precision, parameter :: f146 = 1.7628d+1
$ double precision, parameter :: f147 = 1.7458d-3
$ double precision, parameter :: f148 = 4.7404d-8
$ double precision, parameter :: f149 = 5.4206d-8
$ double precision, parameter :: f150 = 8.3729d-1
$ double precision, parameter :: f151 = 6.1163d-6
$ double precision, parameter :: f152 = 6.3163d-4
$ double precision, parameter :: f153 = 7.6240d-8
$ double precision, parameter :: f154 = 4.9081d-2
$ double precision, parameter :: f155 = 1.8728d-5
$ double precision, parameter :: f156 = 5.5500d-7
$ double precision, parameter :: f157 = 3.7657d-6
$ double precision, parameter :: f158 = 1.0709d-6
$ double precision, parameter :: f159 = 4.0516d0
$ double precision, parameter :: f160 = 1.3645d-7
$ double precision, parameter :: f161 = 5.4624d+1
$ double precision, parameter :: f162 = 3.4600d-2
$ double precision, parameter :: f163 = 6.7165d-8
$ double precision, parameter :: f164 = 3.4752d+2
$ double precision, parameter :: f165 = 8.3745d-3
$ double precision, parameter :: f166 = 9.9359d+1
$ double precision, parameter :: f167 = 3.1294d-2
$ double precision, parameter :: f168 = 3.5790d-3
$ double precision, parameter :: f169 = 4.1602d+2
$ double precision, parameter :: f170 = 5.4536d-6
$ double precision, parameter :: f171 = 3.5468d+1
$ double precision, parameter :: f172 = 1.3249d-6
$ double precision, parameter :: f173 = 2.2655d-8
$ double precision, parameter :: f174 = 5.6592d-6
$ double precision, parameter :: f175 = 8.6895d-1
$ double precision, parameter :: f176 = 1.3786d-2
$ double precision, parameter :: f177 = 1.5094d-8
$ double precision, parameter :: f178 = 2.1010d-5
$ double precision, parameter :: f179 = 1.7390d-7
$ double precision, parameter :: f180 = 1.5455d-7
$ double precision, parameter :: f181 = 4.7459d-2
$ double precision, parameter :: f182 = 6.5254d-3
$ double precision, parameter :: f183 = 4.4012d0
$ double precision, parameter :: f184 = 1.2084d-5
$ double precision, parameter :: f185 = 2.3755d-7
$ double precision, parameter :: f186 = 3.0384d0
$ double precision, parameter :: f187 = 4.9124d-5
$ double precision, parameter :: f188 = 4.1608d-3
$ double precision, parameter :: f189 = 5.9196d-1
$ double precision, parameter :: f190 = 5.4350d-2
$ double precision, parameter :: f191 = 2.1529d-6
$ double precision, parameter :: f192 = 2.0979d-5
$ double precision, parameter :: f193 = 1.7494d0
$ double precision, parameter :: f194 = 1.8883d-7
$ double precision, parameter :: f195 = 2.1274d-5
$ double precision, parameter :: f196 = 7.6098d-4
$ double precision, parameter :: f197 = 7.5726d-4
$ double precision, parameter :: f198 = 2.5786d0
$ double precision, parameter :: f199 = 7.2001d-2
$ double precision, parameter :: f200 = 6.8054d+2
$ double precision, parameter :: f201 = 9.7758d-3
$ double precision, parameter :: f202 = 1.0207d+2
$ double precision, parameter :: f203 = 5.1917d-5
$ double precision, parameter :: f204 = 2.4308d-8
$ double precision, parameter :: f205 = 4.1860d-3
$ double precision, parameter :: f206 = 1.3655d+2
$ double precision, parameter :: f207 = 1.7665d-6
$ double precision, parameter :: f208 = 3.7705d-7
$ double precision, parameter :: f209 = 3.4797d0
$ double precision, parameter :: f210 = 1.4650d-5
$ double precision, parameter :: f211 = 1.7961d-7
$ double precision, parameter :: f212 = 7.7094d-6
$ double precision, parameter :: f213 = 1.0506d-4
$ double precision, parameter :: f214 = 1.2302d-7
$ double precision, parameter :: f215 = 6.8340d+1
$ double precision, parameter :: f216 = 3.1295d-3
$ double precision, parameter :: f217 = 4.9107d-1
$ double precision, parameter :: f218 = 2.4382d-6
$ double precision, parameter :: f219 = 2.5279d-7
$ double precision, parameter :: f220 = 1.3005d-3
$ double precision, parameter :: f221 = 3.0484d+1
$ double precision, parameter :: f222 = 2.4245d-6
$ double precision, parameter :: f223 = 1.6187d-4
$ double precision, parameter :: f224 = 1.3551d+1
$ double precision, parameter :: f225 = 5.6393d-1
$ double precision, parameter :: f226 = 2.5236d+2
$ double precision, parameter :: f227 = 1.8520d-1
$ double precision, parameter :: f228 = 1.0331d-2
$ double precision, parameter :: f229 = 1.2048d-8
$ double precision, parameter :: f230 = 2.9093d0
$ double precision, parameter :: f231 = 3.1555d-6
$ double precision, parameter :: f232 = 1.2141d0
$ double precision, parameter :: f233 = 6.5059d+1
$ double precision, parameter :: f234 = 5.3964d-2
$ double precision, parameter :: f235 = 4.7089d-3
$ double precision, parameter :: f236 = 7.7519d-8
$ double precision, parameter :: f237 = 3.9473d-7
$ double precision, parameter :: f238 = 6.8273d-1
$ double precision, parameter :: f239 = 3.6874d-3
$ double precision, parameter :: f240 = 2.7563d-7
$ double precision, parameter :: f241 = 2.2556d-5
$ double precision, parameter :: f242 = 5.3021d0
$ double precision, parameter :: f243 = 2.4464d-5
$ double precision, parameter :: f244 = 3.6334d+1
$ double precision, parameter :: f245 = 1.5140d-7
$ double precision, parameter :: f246 = 4.1475d-5
$ double precision, parameter :: f247 = 2.2916d-6
$ double precision, parameter :: f248 = 2.3555d-3
$ double precision, parameter :: f249 = 8.4062d-3
$ double precision, parameter :: f250 = 2.9758d-8
$ double precision, parameter :: f251 = 1.3881d+1
$ double precision, parameter :: f252 = 5.5603d+1
$ double precision, parameter :: f253 = 3.9150d0
$ double precision, parameter :: f254 = 6.2473d-1
$ double precision, parameter :: f255 = 7.2879d+1
$ double precision, parameter :: f256 = 1.7912d-1
$ double precision, parameter :: f257 = 9.6552d-4
$ double precision, parameter :: f258 = 1.2023d-5
$ double precision, parameter :: f259 = 9.1704d-2
$ double precision, parameter :: f260 = 8.2752d-5
$ double precision, parameter :: f261 = 6.9605d-8
$ double precision, parameter :: f262 = 4.7484d-3
$ double precision, parameter :: f263 = 1.1762d+2
$ double precision, parameter :: f264 = 3.8342d-4
$ double precision, parameter :: f265 = 1.5948d-5
$ double precision, parameter :: f266 = 2.5655d+2
$ double precision, parameter :: f267 = 2.9691d-7
$ double precision, parameter :: f268 = 4.2091d-3
$ double precision, parameter :: f269 = 2.2471d-6
$ double precision, parameter :: f270 = 3.1703d-1
$ double precision, parameter :: f271 = 1.2860d-3
$ double precision, parameter :: f272 = 8.1973d-5
$ double precision, parameter :: f273 = 3.5056d+2
$ double precision, parameter :: f274 = 6.2553d-7
$ double precision, parameter :: f275 = 5.3574d0
$ double precision, parameter :: f276 = 1.2333d-2
$ double precision, parameter :: f277 = 1.0389d-4
$ double precision, parameter :: f278 = 3.1758d-1
$ double precision, parameter :: f279 = 2.5517d-5
$ double precision, parameter :: f280 = 1.5922d-2
$ double precision, parameter :: f281 = 5.3965d0
$ double precision, parameter :: f282 = 6.9885d-6
$ double precision, parameter :: f283 = 7.2293d-6
$ double precision, parameter :: f284 = 3.4777d-7
$ double precision, parameter :: f285 = 3.1771d-2
$ double precision, parameter :: f286 = 2.7234d-7
$ double precision, parameter :: f287 = 7.4961d-5
$ double precision, parameter :: f288 = 1.7623d-7
$ double precision, parameter :: f289 = 1.3450d-3
$ double precision, parameter :: f290 = 3.7531d-1
$ double precision, parameter :: f291 = 1.9073d-6
$ double precision, parameter :: f292 = 4.1251d-4
$ double precision, parameter :: f293 = 1.2432d+1
$ double precision, parameter :: f294 = 8.3360d+2
$ double precision, parameter :: f295 = 6.3663d+1
$ double precision, parameter :: f296 = 8.5868d-7
$ double precision, parameter :: f297 = 1.4928d-6
$ double precision, parameter :: f298 = 2.1473d-2
$ double precision, parameter :: f299 = 3.8805d+1
$ double precision, parameter :: f300 = 3.6499d0
$ double precision, parameter :: f301 = 1.7198d-4
$ double precision, parameter :: f302 = 6.8859d-3
$ double precision, parameter :: f303 = 3.6464d0
$ double precision, parameter :: f304 = 1.7702d-2
$ double precision, parameter :: f305 = 1.4745d+2
$ double precision, parameter :: f306 = 1.6855d-1
$ double precision, parameter :: f307 = 4.8874d-2
$ double precision, parameter :: f308 = 1.2588d+1
$ double precision, parameter :: f309 = 1.1623d-6
$ double precision, parameter :: f310 = 2.5888d-6
$ double precision, parameter :: f311 = 1.8400d-3
$ double precision, parameter :: f312 = 9.9688d+1
$ double precision, parameter :: f313 = 8.7961d0
$ double precision, parameter :: f314 = 7.4413d0
$ double precision, parameter :: f315 = 6.3833d+2

# Electron Collision Reaction
e + CH4 => e + CH4(v24)		! f0 * Bolsig+ CH4 -> CH4(v24)
e + CH4 => e + CH4(v13)		! f1 * Bolsig+ CH4 -> CH4(v13)
e + C2H6 => e + C2H6(v24)		! f2 * Bolsig+ C2H6 -> C2H6(v24)
e + C2H6 => e + C2H6(v13)		! f3 * Bolsig+ C2H6 -> C2H6(v13)
e + C2H4 => e + C2H4(v1)		! f4 * Bolsig+ C2H4 -> C2H4(v1)
e + C2H4 => e + C2H4(v2)		! f5 * Bolsig+ C2H4 -> C2H4(v2)
e + C2H2 => e + C2H2(v5)		! f6 * Bolsig+ C2H2 -> C2H2(v5)
e + C2H2 => e + C2H2(v2)		! f7 * Bolsig+ C2H2 -> C2H2(v2)
e + C2H2 => e + C2H2(v13)		! f8 * Bolsig+ C2H2 -> C2H2(v13)
e + C3H8 => e + C3H8(v1)		! f9 * Bolsig+ C3H8 -> C3H8(v1)
e + C3H8 => e + C3H8(v2)		! f10 * Bolsig+ C3H8 -> C3H8(v2)
e + C3H6 => e + C3H6(v)		! f11 * Bolsig+ C3H6 -> C3H6(v)
e + CH4 => e + CH3 + H		! f12 * Bolsig+ CH4 -> CH3 H
e + CH4(v24) => e + CH3 + H		! f12 * Bolsig+ CH4(v24) -> CH3 H
e + CH4(v13) => e + CH3 + H		! f12 * Bolsig+ CH4(v13) -> CH3 H
e + CH4 => e + CH2 + H2		! f13 * Bolsig+ CH4 -> CH2 H2
e + CH4(v24) => e + CH2 + H2		! f13 * Bolsig+ CH4(v24) -> CH2 H2
e + CH4(v13) => e + CH2 + H2		! f13 * Bolsig+ CH4(v13) -> CH2 H2
e + CH4 => e + CH + H2 + H		! f14 * Bolsig+ CH4 -> CH H2 H
e + CH4(v24) => e + CH + H2 + H		! f14 * Bolsig+ CH4(v24) -> CH H2 H
e + CH4(v13) => e + CH + H2 + H		! f14 * Bolsig+ CH4(v13) -> CH H2 H
e + CH4 => e + C + H2 + H2		! f15 * Bolsig+ CH4 -> C H2 H2
e + CH4(v24) => e + C + H2 + H2		! f15 * Bolsig+ CH4(v24) -> C H2 H2
e + CH4(v13) => e + C + H2 + H2		! f15 * Bolsig+ CH4(v13) -> C H2 H2
e + CH3 => e + CH2 + H		! f16 * Bolsig+ CH3 -> CH2 H
e + CH3 => e + CH + H2		! f17 * Bolsig+ CH3 -> CH H2
e + CH3 => e + C + H2 + H		! f18 * Bolsig+ CH3 -> C H2 H
e + CH2 => e + CH + H		! f19 * Bolsig+ CH2 -> CH H
e + CH2 => e + C + H2		! f20 * Bolsig+ CH2 -> C H2
e + CH2 => e + C + H + H		! f21 * Bolsig+ CH2 -> C H H
e + CH => e + C + H		! f22 * Bolsig+ CH -> C H
e + CH4 => e + e + CH4^+		! f23 * Bolsig+ CH4 -> CH4^+
e + CH4(v24) => e + e + CH4^+		! f23 * Bolsig+ CH4(v24) -> CH4^+
e + CH4(v13) => e + e + CH4^+		! f23 * Bolsig+ CH4(v13) -> CH4^+
e + CH4 => e + e + H + CH3^+		! f24 * Bolsig+ CH4 -> H CH3^+
e + CH4(v24) => e + e + H + CH3^+		! f24 * Bolsig+ CH4(v24) -> H CH3^+
e + CH4(v13) => e + e + H + CH3^+		! f24 * Bolsig+ CH4(v13) -> H CH3^+
e + CH4 => e + e + H2 + CH2^+		! f25 * Bolsig+ CH4 -> H2 CH2^+
e + CH4(v24) => e + e + H2 + CH2^+		! f25 * Bolsig+ CH4(v24) -> H2 CH2^+
e + CH4(v13) => e + e + H2 + CH2^+		! f25 * Bolsig+ CH4(v13) -> H2 CH2^+
e + CH4 => e + e + H2 + H + CH^+		! f26 * Bolsig+ CH4 -> H2 H CH^+
e + CH4(v24) => e + e + H2 + H + CH^+		! f26 * Bolsig+ CH4(v24) -> H2 H CH^+
e + CH4(v13) => e + e + H2 + H + CH^+		! f26 * Bolsig+ CH4(v13) -> H2 H CH^+
e + CH3 => e + e + CH3^+		! f27 * Bolsig+ CH3 -> CH3^+
e + CH3 => e + e + H + CH2^+		! f28 * Bolsig+ CH3 -> H CH2^+
e + CH3 => e + e + H2 + CH^+		! f29 * Bolsig+ CH3 -> H2 CH^+
e + CH2 => e + e + CH2^+		! f30 * Bolsig+ CH2 -> CH2^+
e + CH2 => e + e + H + CH^+		! f31 * Bolsig+ CH2 -> H CH^+
e + CH => e + e + CH^+		! f32 * Bolsig+ CH -> CH^+
e + C2H6 => e + C2H5 + H		! f33 * Bolsig+ C2H6 -> C2H5 H
e + C2H6(v24) => e + C2H5 + H		! f33 * Bolsig+ C2H6(v24) -> C2H5 H
e + C2H6(v13) => e + C2H5 + H		! f33 * Bolsig+ C2H6(v13) -> C2H5 H
e + C2H6 => e + C2H4 + H2		! f34 * Bolsig+ C2H6 -> C2H4 H2
e + C2H6(v24) => e + C2H4 + H2		! f34 * Bolsig+ C2H6(v24) -> C2H4 H2
e + C2H6(v13) => e + C2H4 + H2		! f34 * Bolsig+ C2H6(v13) -> C2H4 H2
e + C2H6 => e + C2H3 + H2 + H		! f35 * Bolsig+ C2H6 -> C2H3 H2 H
e + C2H6(v24) => e + C2H3 + H2 + H		! f35 * Bolsig+ C2H6(v24) -> C2H3 H2 H
e + C2H6(v13) => e + C2H3 + H2 + H		! f35 * Bolsig+ C2H6(v13) -> C2H3 H2 H
e + C2H6 => e + C2H2 + H2 + H2		! f36 * Bolsig+ C2H6 -> C2H2 H2 H2
e + C2H6(v24) => e + C2H2 + H2 + H2		! f36 * Bolsig+ C2H6(v24) -> C2H2 H2 H2
e + C2H6(v13) => e + C2H2 + H2 + H2		! f36 * Bolsig+ C2H6(v13) -> C2H2 H2 H2
e + C2H6 => e + CH4 + CH2		! f37 * Bolsig+ C2H6 -> CH4 CH2
e + C2H6(v24) => e + CH4 + CH2		! f37 * Bolsig+ C2H6(v24) -> CH4 CH2
e + C2H6(v13) => e + CH4 + CH2		! f37 * Bolsig+ C2H6(v13) -> CH4 CH2
e + C2H6 => e + CH3 + CH3		! f38 * Bolsig+ C2H6 -> CH3 CH3
e + C2H6(v24) => e + CH3 + CH3		! f38 * Bolsig+ C2H6(v24) -> CH3 CH3
e + C2H6(v13) => e + CH3 + CH3		! f38 * Bolsig+ C2H6(v13) -> CH3 CH3
e + C2H5 => e + C2H4 + H		! f39 * Bolsig+ C2H5 -> C2H4 H
e + C2H5 => e + C2H3 + H2		! f40 * Bolsig+ C2H5 -> C2H3 H2
e + C2H5 => e + C2H3 + H + H		! f41 * Bolsig+ C2H5 -> C2H3 H H
e + C2H5 => e + C2H2 + H2 + H		! f42 * Bolsig+ C2H5 -> C2H2 H2 H
e + C2H5 => e + CH4 + CH		! f43 * Bolsig+ C2H5 -> CH4 CH
e + C2H5 => e + CH3 + CH2		! f44 * Bolsig+ C2H5 -> CH3 CH2
e + C2H4 => e + C2H3 + H		! f45 * Bolsig+ C2H4 -> C2H3 H
e + C2H4(v1) => e + C2H3 + H		! f45 * Bolsig+ C2H4(v1) -> C2H3 H
e + C2H4(v2) => e + C2H3 + H		! f45 * Bolsig+ C2H4(v2) -> C2H3 H
e + C2H4 => e + C2H2 + H2		! f46 * Bolsig+ C2H4 -> C2H2 H2
e + C2H4(v1) => e + C2H2 + H2		! f46 * Bolsig+ C2H4(v1) -> C2H2 H2
e + C2H4(v2) => e + C2H2 + H2		! f46 * Bolsig+ C2H4(v2) -> C2H2 H2
e + C2H4 => e + C2H2 + H + H		! f47 * Bolsig+ C2H4 -> C2H2 H H
e + C2H4(v1) => e + C2H2 + H + H		! f47 * Bolsig+ C2H4(v1) -> C2H2 H H
e + C2H4(v2) => e + C2H2 + H + H		! f47 * Bolsig+ C2H4(v2) -> C2H2 H H
e + C2H4 => e + CH3 + CH		! f48 * Bolsig+ C2H4 -> CH3 CH
e + C2H4(v1) => e + CH3 + CH		! f48 * Bolsig+ C2H4(v1) -> CH3 CH
e + C2H4(v2) => e + CH3 + CH		! f48 * Bolsig+ C2H4(v2) -> CH3 CH
e + C2H4 => e + CH2 + CH2		! f49 * Bolsig+ C2H4 -> CH2 CH2
e + C2H4(v1) => e + CH2 + CH2		! f49 * Bolsig+ C2H4(v1) -> CH2 CH2
e + C2H4(v2) => e + CH2 + CH2		! f49 * Bolsig+ C2H4(v2) -> CH2 CH2
e + C2H3 => e + C2H2 + H		! f50 * Bolsig+ C2H3 -> C2H2 H
e + C2H3 => e + CH2 + CH		! f51 * Bolsig+ C2H3 -> CH2 CH
e + C2H2 => e + CH + CH		! f52 * Bolsig+ C2H2 -> CH CH
e + C2H2(v5) => e + CH + CH		! f52 * Bolsig+ C2H2(v5) -> CH CH
e + C2H2(v2) => e + CH + CH		! f52 * Bolsig+ C2H2(v2) -> CH CH
e + C2H2(v13) => e + CH + CH		! f52 * Bolsig+ C2H2(v13) -> CH CH
e + C2H6 => e + e + C2H6^+		! f53 * Bolsig+ C2H6 -> C2H6^+
e + C2H6(v24) => e + e + C2H6^+		! f53 * Bolsig+ C2H6(v24) -> C2H6^+
e + C2H6(v13) => e + e + C2H6^+		! f53 * Bolsig+ C2H6(v13) -> C2H6^+
e + C2H6 => e + e + H + C2H5^+		! f54 * Bolsig+ C2H6 -> H C2H5^+
e + C2H6(v24) => e + e + H + C2H5^+		! f54 * Bolsig+ C2H6(v24) -> H C2H5^+
e + C2H6(v13) => e + e + H + C2H5^+		! f54 * Bolsig+ C2H6(v13) -> H C2H5^+
e + C2H6 => e + e + H2 + C2H4^+		! f55 * Bolsig+ C2H6 -> H2 C2H4^+
e + C2H6(v24) => e + e + H2 + C2H4^+		! f55 * Bolsig+ C2H6(v24) -> H2 C2H4^+
e + C2H6(v13) => e + e + H2 + C2H4^+		! f55 * Bolsig+ C2H6(v13) -> H2 C2H4^+
e + C2H6 => e + e + H2 + H + C2H3^+		! f56 * Bolsig+ C2H6 -> H2 H C2H3^+
e + C2H6(v24) => e + e + H2 + H + C2H3^+		! f56 * Bolsig+ C2H6(v24) -> H2 H C2H3^+
e + C2H6(v13) => e + e + H2 + H + C2H3^+		! f56 * Bolsig+ C2H6(v13) -> H2 H C2H3^+
e + C2H6 => e + e + H2 + H2 + C2H2^+		! f57 * Bolsig+ C2H6 -> H2 H2 C2H2^+
e + C2H6(v24) => e + e + H2 + H2 + C2H2^+		! f57 * Bolsig+ C2H6(v24) -> H2 H2 C2H2^+
e + C2H6(v13) => e + e + H2 + H2 + C2H2^+		! f57 * Bolsig+ C2H6(v13) -> H2 H2 C2H2^+
e + C2H6 => e + e + CH3 + CH3^+		! f58 * Bolsig+ C2H6 -> CH3 CH3^+
e + C2H6(v24) => e + e + CH3 + CH3^+		! f58 * Bolsig+ C2H6(v24) -> CH3 CH3^+
e + C2H6(v13) => e + e + CH3 + CH3^+		! f58 * Bolsig+ C2H6(v13) -> CH3 CH3^+
e + C2H6 => e + e + CH4 + CH2^+		! f59 * Bolsig+ C2H6 -> CH4 CH2^+
e + C2H6(v24) => e + e + CH4 + CH2^+		! f59 * Bolsig+ C2H6(v24) -> CH4 CH2^+
e + C2H6(v13) => e + e + CH4 + CH2^+		! f59 * Bolsig+ C2H6(v13) -> CH4 CH2^+
e + C2H5 => e + e + C2H5^+		! f60 * Bolsig+ C2H5 -> C2H5^+
e + C2H5 => e + e + H + C2H4^+		! f61 * Bolsig+ C2H5 -> H C2H4^+
e + C2H5 => e + e + H2 + C2H3^+		! f62 * Bolsig+ C2H5 -> H2 C2H3^+
e + C2H5 => e + e + H2 + H + C2H2^+		! f63 * Bolsig+ C2H5 -> H2 H C2H2^+
e + C2H5 => e + e + CH2 + CH3^+		! f64 * Bolsig+ C2H5 -> CH2 CH3^+
e + C2H5 => e + e + CH3 + CH2^+		! f65 * Bolsig+ C2H5 -> CH3 CH2^+
e + C2H5 => e + e + CH4 + CH^+		! f66 * Bolsig+ C2H5 -> CH4 CH^+
e + C2H4 => e + e + C2H4^+		! f67 * Bolsig+ C2H4 -> C2H4^+
e + C2H4(v1) => e + e + C2H4^+		! f67 * Bolsig+ C2H4(v1) -> C2H4^+
e + C2H4(v2) => e + e + C2H4^+		! f67 * Bolsig+ C2H4(v2) -> C2H4^+
e + C2H4 => e + e + H + C2H3^+		! f68 * Bolsig+ C2H4 -> H C2H3^+
e + C2H4(v1) => e + e + H + C2H3^+		! f68 * Bolsig+ C2H4(v1) -> H C2H3^+
e + C2H4(v2) => e + e + H + C2H3^+		! f68 * Bolsig+ C2H4(v2) -> H C2H3^+
e + C2H4 => e + e + CH + CH3^+		! f69 * Bolsig+ C2H4 -> CH CH3^+
e + C2H4(v1) => e + e + CH + CH3^+		! f69 * Bolsig+ C2H4(v1) -> CH CH3^+
e + C2H4(v2) => e + e + CH + CH3^+		! f69 * Bolsig+ C2H4(v2) -> CH CH3^+
e + C2H4 => e + e + CH2 + CH2^+		! f70 * Bolsig+ C2H4 -> CH2 CH2^+
e + C2H4(v1) => e + e + CH2 + CH2^+		! f70 * Bolsig+ C2H4(v1) -> CH2 CH2^+
e + C2H4(v2) => e + e + CH2 + CH2^+		! f70 * Bolsig+ C2H4(v2) -> CH2 CH2^+
e + C2H4 => e + e + CH3 + CH^+		! f71 * Bolsig+ C2H4 -> CH3 CH^+
e + C2H4(v1) => e + e + CH3 + CH^+		! f71 * Bolsig+ C2H4(v1) -> CH3 CH^+
e + C2H4(v2) => e + e + CH3 + CH^+		! f71 * Bolsig+ C2H4(v2) -> CH3 CH^+
e + C2H3 => e + e + C2H3^+		! f72 * Bolsig+ C2H3 -> C2H3^+
e + C2H3 => e + e + H + C2H2^+		! f73 * Bolsig+ C2H3 -> H C2H2^+
e + C2H3 => e + e + CH + CH2^+		! f74 * Bolsig+ C2H3 -> CH CH2^+
e + C2H3 => e + e + CH2 + CH^+		! f75 * Bolsig+ C2H3 -> CH2 CH^+
e + C2H3 => e + e + C2H2 + H^+		! f76 * Bolsig+ C2H3 -> C2H2 H^+
e + C2H2 => e + e + C2H2^+		! f77 * Bolsig+ C2H2 -> C2H2^+
e + C2H2(v5) => e + e + C2H2^+		! f77 * Bolsig+ C2H2(v5) -> C2H2^+
e + C2H2(v2) => e + e + C2H2^+		! f77 * Bolsig+ C2H2(v2) -> C2H2^+
e + C2H2(v13) => e + e + C2H2^+		! f77 * Bolsig+ C2H2(v13) -> C2H2^+
e + C2H2 => e + e + CH + CH^+		! f78 * Bolsig+ C2H2 -> CH CH^+
e + C2H2(v5) => e + e + CH + CH^+		! f78 * Bolsig+ C2H2(v5) -> CH CH^+
e + C2H2(v2) => e + e + CH + CH^+		! f78 * Bolsig+ C2H2(v2) -> CH CH^+
e + C2H2(v13) => e + e + CH + CH^+		! f78 * Bolsig+ C2H2(v13) -> CH CH^+
e + C3H8 => e + C3H7 + H		! f79 * Bolsig+ C3H8 -> C3H7 H
e + C3H8(v1) => e + C3H7 + H		! f79 * Bolsig+ C3H8(v1) -> C3H7 H
e + C3H8(v2) => e + C3H7 + H		! f79 * Bolsig+ C3H8(v2) -> C3H7 H
e + C3H8 => e + C3H6 + H2		! f80 * Bolsig+ C3H8 -> C3H6 H2
e + C3H8(v1) => e + C3H6 + H2		! f80 * Bolsig+ C3H8(v1) -> C3H6 H2
e + C3H8(v2) => e + C3H6 + H2		! f80 * Bolsig+ C3H8(v2) -> C3H6 H2
e + C3H7 => e + C3H6 + H		! f81 * Bolsig+ C3H7 -> C3H6 H
e + C3H8 => e + e + C3H8^+		! f82 * Bolsig+ C3H8 -> C3H8^+
e + C3H8(v1) => e + e + C3H8^+		! f82 * Bolsig+ C3H8(v1) -> C3H8^+
e + C3H8(v2) => e + e + C3H8^+		! f82 * Bolsig+ C3H8(v2) -> C3H8^+
e + C3H8 => e + e + H + C3H7^+		! f83 * Bolsig+ C3H8 -> H C3H7^+
e + C3H8(v1) => e + e + H + C3H7^+		! f83 * Bolsig+ C3H8(v1) -> H C3H7^+
e + C3H8(v2) => e + e + H + C3H7^+		! f83 * Bolsig+ C3H8(v2) -> H C3H7^+
e + C3H8 => e + e + H2 + C3H6^+		! f84 * Bolsig+ C3H8 -> H2 C3H6^+
e + C3H8(v1) => e + e + H2 + C3H6^+		! f84 * Bolsig+ C3H8(v1) -> H2 C3H6^+
e + C3H8(v2) => e + e + H2 + C3H6^+		! f84 * Bolsig+ C3H8(v2) -> H2 C3H6^+
e + C3H7 => e + e + C3H7^+		! f85 * Bolsig+ C3H7 -> C3H7^+
e + C3H7 => e + e + H + C3H6^+		! f86 * Bolsig+ C3H7 -> H C3H6^+
e + C3H6 => e + e + C3H6^+		! f87 * Bolsig+ C3H6 -> C3H6^+
e + C3H6(v) => e + e + C3H6^+		! f87 * Bolsig+ C3H6(v) -> C3H6^+
e + C3H6 => e + C2H2 + CH4		! f88 * Bolsig+ C3H6 -> C2H2 CH4
e + C3H6(v) => e + C2H2 + CH4		! f88 * Bolsig+ C3H6(v) -> C2H2 CH4
e + C3H6 => e + e + C2H2 + CH4^+		! f89 * Bolsig+ C3H6 -> C2H2 CH4^+
e + C3H6(v) => e + e + C2H2 + CH4^+		! f89 * Bolsig+ C3H6(v) -> C2H2 CH4^+

# Ion Recombination Reaction
e + e + CH^+ => e + CH		! f90 * 1.00d0
e + e + CH2^+ => e + CH2		! f91 * 1.00d0
e + e + CH3^+ => e + CH3		! f92 * 1.00d0
e + e + CH4^+ => e + CH4		! f93 * 1.00d0
e + e + C2H2^+ => e + C2H2		! f94 * 1.00d0
e + e + C2H3^+ => e + C2H3		! f95 * 1.00d0
e + e + C2H4^+ => e + C2H4		! f96 * 1.00d0
e + e + C2H5^+ => e + C2H5		! f97 * 1.00d0
e + e + C2H6^+ => e + C2H6		! f98 * 1.00d0
e + e + C3H6^+ => e + C3H6		! f99 * 1.00d0
e + e + C3H7^+ => e + C3H7		! f100 * 1.00d0
e + e + C3H8^+ => e + C3H8		! f101 * 1.00d0

# Gas Phase Reaction
e + CH4^+ => CH3 + H		! f102 * 1.18d-08 * (300./Tgas)**0.5
e + CH4^+ => CH2 + H + H		! f103 * 2.42d-08 * (300./Tgas)**0.5
e + CH4^+ => CH + H2 + H		! f104 * 1.41d-08 * (300./Tgas)**0.5
e + CH3^+ => CH2 + H		! f105 * 2.25d-08 * (300./Tgas)**0.5
e + CH3^+ => CH + H2		! f106 * 7.88d-09 * (300./Tgas)**0.5
e + CH3^+ => CH + H + H		! f107 * 9.00d-09 * (300./Tgas)**0.5
e + CH3^+ => C + H2 + H		! f108 * 1.69d-08 * (300./Tgas)**0.5
e + CH2^+ => CH + H		! f109 * 1.00d-08 * (300./Tgas)**0.5
e + CH2^+ => C + H2		! f110 * 4.82d-09 * (300./Tgas)**0.5
e + CH2^+ => C + H + H		! f111 * 2.53d-08 * (300./Tgas)**0.5
e + CH^+ => C + H		! f112 * 3.23d-08 * (300./Tgas)**0.42
e + C2H6^+ => C2H5 + H		! f113 * 2.19d-08 * (300./Tgas)**0.71
e + C2H6^+ => C2H4 + H + H		! f114 * 3.36d-08 * (300./Tgas)**0.71
e + C2H5^+ => C2H4 + H		! f115 * 7.70d-09 * (300./Tgas)**0.71
e + C2H5^+ => C2H3 + H + H		! f116 * 1.92d-08 * (300./Tgas)**0.71
e + C2H5^+ => C2H2 + H2 + H		! f117 * 1.60d-08 * (300./Tgas)**0.71
e + C2H5^+ => C2H2 + H + H + H		! f118 * 8.98d-09 * (300./Tgas)**0.71
e + C2H5^+ => CH3 + CH2		! f119 * 9.62d-09 * (300./Tgas)**0.71
e + C2H4^+ => C2H3 + H		! f120 * 8.29d-09 * (300./Tgas)**0.71
e + C2H4^+ => C2H2 + H + H		! f121 * 3.43d-08 * (300./Tgas)**0.71
e + C2H3^+ => C2H2 + H		! f122 * 1.34d-08 * (300./Tgas)**0.71
e + C2H2^+ => CH + CH		! f123 * 4.87d-09 * (300./Tgas)**0.71
e + H2^+ => H + H		! f124 * 3.17d21/(6.022d23 * Te**4.5)
e + H3^+ => H + H2		! f125 * 3.17d21/(6.022d23 * Te**4.5)
H2 + H2^+ => H + H3^+		! f126 * 2.11d-09
C2H6 + CH4^+ => CH4 + H2 + C2H4^+		! f127 * 1.91d-9
C2H6(v24) + CH4^+ => CH4 + H2 + C2H4^+		! f127 * 1.91d-9
C2H6(v13) + CH4^+ => CH4 + H2 + C2H4^+		! f127 * 1.91d-9
C2H4 + CH4^+ => CH3 + C2H5^+		! f128 * 4.23d-10