ELEMENTS
e C H
END

SPECIES
e C CH CH^+ CH2 CH2^+ CH3 CH3^+ CH4 CH4(v13) CH4(v24) CH4^+ C2H2 C2H2(v13) C2H2(v2) C2H2(v5) C2H2^+ C2H3 C2H3^+ C2H4 C2H4(v1) C2H4(v2) C2H4^+ C2H5 C2H5^+
C2H6 C2H6(v13) C2H6(v24) C2H6^+ C3H5 C3H6 C3H6(v) C3H6^+ C3H7 C3H7^+ C3H8 C3H8(v1) C3H8(v2) C3H8^+ C4H9 C4H9H C2H C5H12 H H2 H2^+ H3^+ H^+
END

BOLSIG
CH CH2 CH3 CH4 CH4(v13) CH4(v24) C2H2 C2H2(v13) C2H2(v2) C2H2(v5) C2H3 C2H4 C2H4(v1) C2H4(v2) C2H5 C2H6 C2H6(v13) C2H6(v24) C3H6 C3H6(v) C3H7 C3H8 C3H8(v1) C3H8(v2)
END

REACTIONS
# Gas Constant
$ double precision, parameter :: R = 8.314d-3

# Compensation Parameters
$ double precision, parameter :: f0 = 1.9336d-5
$ double precision, parameter :: f1 = 8.7975d-2
$ double precision, parameter :: f2 = 4.2727d-1
$ double precision, parameter :: f3 = 6.4541d-8
$ double precision, parameter :: f4 = 1.6367d-5
$ double precision, parameter :: f5 = 3.3470d-8
$ double precision, parameter :: f6 = 3.8886d0
$ double precision, parameter :: f7 = 1.1174d+2
$ double precision, parameter :: f8 = 1.3955d-3
$ double precision, parameter :: f9 = 1.5974d-3
$ double precision, parameter :: f10 = 3.4266d+2
$ double precision, parameter :: f11 = 1.0412d+1
$ double precision, parameter :: f12 = 8.6783d+1
$ double precision, parameter :: f13 = 3.9126d+1
$ double precision, parameter :: f14 = 1.4677d-3
$ double precision, parameter :: f15 = 6.7206d-7
$ double precision, parameter :: f16 = 6.0305d-6
$ double precision, parameter :: f17 = 4.9744d-6
$ double precision, parameter :: f18 = 2.6822d-1
$ double precision, parameter :: f19 = 8.5936d0
$ double precision, parameter :: f20 = 1.9128d-2
$ double precision, parameter :: f21 = 5.8916d-1
$ double precision, parameter :: f22 = 2.1856d-7
$ double precision, parameter :: f23 = 3.6534d-8
$ double precision, parameter :: f24 = 5.5550d0
$ double precision, parameter :: f25 = 2.6189d-4
$ double precision, parameter :: f26 = 3.6814d-4
$ double precision, parameter :: f27 = 6.7110d-4
$ double precision, parameter :: f28 = 2.0557d-3
$ double precision, parameter :: f29 = 2.0451d-4
$ double precision, parameter :: f30 = 2.3944d-7
$ double precision, parameter :: f31 = 1.5110d+2
$ double precision, parameter :: f32 = 1.4472d-4
$ double precision, parameter :: f33 = 2.0147d-5
$ double precision, parameter :: f34 = 2.7143d-8
$ double precision, parameter :: f35 = 2.7218d-5
$ double precision, parameter :: f36 = 9.6262d-8
$ double precision, parameter :: f37 = 1.2612d-7
$ double precision, parameter :: f38 = 7.0469d-2
$ double precision, parameter :: f39 = 5.9315d-8
$ double precision, parameter :: f40 = 1.8374d-7
$ double precision, parameter :: f41 = 3.4662d+1
$ double precision, parameter :: f42 = 3.1569d0
$ double precision, parameter :: f43 = 1.7783d+2
$ double precision, parameter :: f44 = 3.1181d-2
$ double precision, parameter :: f45 = 1.2037d-1
$ double precision, parameter :: f46 = 6.5353d-6
$ double precision, parameter :: f47 = 5.5104d0
$ double precision, parameter :: f48 = 8.9303d-8
$ double precision, parameter :: f49 = 1.1223d+2
$ double precision, parameter :: f50 = 2.0742d0
$ double precision, parameter :: f51 = 2.2746d-4
$ double precision, parameter :: f52 = 1.4938d0
$ double precision, parameter :: f53 = 3.0480d-4
$ double precision, parameter :: f54 = 4.9177d+2
$ double precision, parameter :: f55 = 4.8776d0
$ double precision, parameter :: f56 = 2.3384d-6
$ double precision, parameter :: f57 = 1.7271d-6
$ double precision, parameter :: f58 = 2.1905d-2
$ double precision, parameter :: f59 = 7.5335d+2
$ double precision, parameter :: f60 = 1.5167d-4
$ double precision, parameter :: f61 = 9.3834d-5
$ double precision, parameter :: f62 = 3.2769d-2
$ double precision, parameter :: f63 = 4.0841d-4
$ double precision, parameter :: f64 = 3.7098d0
$ double precision, parameter :: f65 = 1.0319d-4
$ double precision, parameter :: f66 = 5.7585d-7
$ double precision, parameter :: f67 = 6.2743d-3
$ double precision, parameter :: f68 = 1.6094d-7
$ double precision, parameter :: f69 = 2.3646d-4
$ double precision, parameter :: f70 = 2.3180d+1
$ double precision, parameter :: f71 = 6.8224d-1
$ double precision, parameter :: f72 = 1.1584d+1
$ double precision, parameter :: f73 = 9.4761d+1
$ double precision, parameter :: f74 = 1.3727d-6
$ double precision, parameter :: f75 = 1.6195d-8
$ double precision, parameter :: f76 = 1.9105d-1
$ double precision, parameter :: f77 = 2.5969d-5
$ double precision, parameter :: f78 = 1.3555d-2
$ double precision, parameter :: f79 = 1.5554d-3
$ double precision, parameter :: f80 = 3.5191d0
$ double precision, parameter :: f81 = 3.5523d-2
$ double precision, parameter :: f82 = 2.1439d-5
$ double precision, parameter :: f83 = 6.7724d-8
$ double precision, parameter :: f84 = 7.3230d+1
$ double precision, parameter :: f85 = 1.1776d-3
$ double precision, parameter :: f86 = 7.1606d-3
$ double precision, parameter :: f87 = 1.0149d-7
$ double precision, parameter :: f88 = 2.9214d0
$ double precision, parameter :: f89 = 2.2248d-3
$ double precision, parameter :: f90 = 7.1941d-5
$ double precision, parameter :: f91 = 3.4393d0
$ double precision, parameter :: f92 = 1.1434d-6
$ double precision, parameter :: f93 = 9.2924d+1
$ double precision, parameter :: f94 = 2.3734d-8
$ double precision, parameter :: f95 = 6.6109d+1
$ double precision, parameter :: f96 = 3.1427d-8
$ double precision, parameter :: f97 = 2.5901d-7
$ double precision, parameter :: f98 = 1.2747d0
$ double precision, parameter :: f99 = 2.7724d-6
$ double precision, parameter :: f100 = 7.4165d-8
$ double precision, parameter :: f101 = 3.0134d-1
$ double precision, parameter :: f102 = 7.8400d-1
$ double precision, parameter :: f103 = 1.6278d-7
$ double precision, parameter :: f104 = 7.6276d-4
$ double precision, parameter :: f105 = 1.3947d+1
$ double precision, parameter :: f106 = 2.0624d+2
$ double precision, parameter :: f107 = 2.6748d+2
$ double precision, parameter :: f108 = 2.7089d-5
$ double precision, parameter :: f109 = 6.6729d-7
$ double precision, parameter :: f110 = 1.4884d-1
$ double precision, parameter :: f111 = 6.0345d0
$ double precision, parameter :: f112 = 3.6616d-1
$ double precision, parameter :: f113 = 7.5799d-8
$ double precision, parameter :: f114 = 1.3302d-3
$ double precision, parameter :: f115 = 4.5805d-5
$ double precision, parameter :: f116 = 1.3919d+1
$ double precision, parameter :: f117 = 4.3114d-8
$ double precision, parameter :: f118 = 3.1996d-3
$ double precision, parameter :: f119 = 1.0239d-3
$ double precision, parameter :: f120 = 3.0496d-2
$ double precision, parameter :: f121 = 3.8198d-8
$ double precision, parameter :: f122 = 1.3223d+1
$ double precision, parameter :: f123 = 1.7933d-3
$ double precision, parameter :: f124 = 6.7549d-1
$ double precision, parameter :: f125 = 1.1618d-5
$ double precision, parameter :: f126 = 9.3248d-4
$ double precision, parameter :: f127 = 1.7188d-1
$ double precision, parameter :: f128 = 6.6880d-8
$ double precision, parameter :: f129 = 4.0662d-2
$ double precision, parameter :: f130 = 7.7190d-7
$ double precision, parameter :: f131 = 1.5529d0
$ double precision, parameter :: f132 = 9.8544d-3
$ double precision, parameter :: f133 = 1.3275d-1
$ double precision, parameter :: f134 = 5.4200d+1
$ double precision, parameter :: f135 = 1.8862d-5
$ double precision, parameter :: f136 = 2.6761d+1
$ double precision, parameter :: f137 = 3.3548d-2
$ double precision, parameter :: f138 = 3.3877d-5
$ double precision, parameter :: f139 = 4.6554d0
$ double precision, parameter :: f140 = 2.2650d-6
$ double precision, parameter :: f141 = 2.0229d0
$ double precision, parameter :: f142 = 1.0336d-4
$ double precision, parameter :: f143 = 1.2474d+1
$ double precision, parameter :: f144 = 5.3312d-1
$ double precision, parameter :: f145 = 3.5312d-1
$ double precision, parameter :: f146 = 2.7486d+1
$ double precision, parameter :: f147 = 4.1310d-7
$ double precision, parameter :: f148 = 1.1457d-3
$ double precision, parameter :: f149 = 3.9710d-7
$ double precision, parameter :: f150 = 8.9354d-2
$ double precision, parameter :: f151 = 1.5007d-5
$ double precision, parameter :: f152 = 2.6804d-5
$ double precision, parameter :: f153 = 3.7438d0
$ double precision, parameter :: f154 = 3.5517d0
$ double precision, parameter :: f155 = 1.4369d+2
$ double precision, parameter :: f156 = 2.5970d0
$ double precision, parameter :: f157 = 1.1304d-2
$ double precision, parameter :: f158 = 1.0250d-6
$ double precision, parameter :: f159 = 1.9965d+2
$ double precision, parameter :: f160 = 1.4160d-8
$ double precision, parameter :: f161 = 2.6726d-3
$ double precision, parameter :: f162 = 1.9964d-8
$ double precision, parameter :: f163 = 1.2318d-4
$ double precision, parameter :: f164 = 4.5507d+2
$ double precision, parameter :: f165 = 1.2838d-4
$ double precision, parameter :: f166 = 8.8985d-6
$ double precision, parameter :: f167 = 3.2818d-2
$ double precision, parameter :: f168 = 1.3229d-2
$ double precision, parameter :: f169 = 9.3058d+2
$ double precision, parameter :: f170 = 2.0114d-8
$ double precision, parameter :: f171 = 1.5539d-4
$ double precision, parameter :: f172 = 3.1647d0
$ double precision, parameter :: f173 = 1.2149d-6
$ double precision, parameter :: f174 = 2.6389d+2
$ double precision, parameter :: f175 = 9.8554d0
$ double precision, parameter :: f176 = 1.5356d-4
$ double precision, parameter :: f177 = 3.8549d0
$ double precision, parameter :: f178 = 2.2978d-8
$ double precision, parameter :: f179 = 1.5705d-5
$ double precision, parameter :: f180 = 3.6456d0
$ double precision, parameter :: f181 = 1.1873d-7
$ double precision, parameter :: f182 = 8.2435d-4
$ double precision, parameter :: f183 = 1.1790d-4
$ double precision, parameter :: f184 = 9.0745d-6
$ double precision, parameter :: f185 = 1.1355d-4
$ double precision, parameter :: f186 = 2.5876d-8
$ double precision, parameter :: f187 = 2.8330d+2
$ double precision, parameter :: f188 = 2.0108d-4
$ double precision, parameter :: f189 = 5.6242d-2
$ double precision, parameter :: f190 = 1.5913d-4
$ double precision, parameter :: f191 = 7.4233d+1
$ double precision, parameter :: f192 = 4.2565d+2
$ double precision, parameter :: f193 = 8.2370d-1
$ double precision, parameter :: f194 = 8.1679d-4
$ double precision, parameter :: f195 = 2.5241d-4
$ double precision, parameter :: f196 = 4.6672d-4
$ double precision, parameter :: f197 = 1.5633d0
$ double precision, parameter :: f198 = 2.6166d-7
$ double precision, parameter :: f199 = 1.6145d-2
$ double precision, parameter :: f200 = 1.0649d-8
$ double precision, parameter :: f201 = 7.3967d-5
$ double precision, parameter :: f202 = 2.1385d-7
$ double precision, parameter :: f203 = 4.1321d+1
$ double precision, parameter :: f204 = 4.0830d-5
$ double precision, parameter :: f205 = 1.0411d-2
$ double precision, parameter :: f206 = 9.4192d-5
$ double precision, parameter :: f207 = 1.7004d-5
$ double precision, parameter :: f208 = 2.4646d-7
$ double precision, parameter :: f209 = 2.8736d-1
$ double precision, parameter :: f210 = 5.1345d-1
$ double precision, parameter :: f211 = 2.6872d-2
$ double precision, parameter :: f212 = 1.7467d-4
$ double precision, parameter :: f213 = 5.1492d-4
$ double precision, parameter :: f214 = 7.9051d+2
$ double precision, parameter :: f215 = 1.9083d-8
$ double precision, parameter :: f216 = 4.7752d-1
$ double precision, parameter :: f217 = 6.5537d-7
$ double precision, parameter :: f218 = 5.7193d-1
$ double precision, parameter :: f219 = 2.7246d-2
$ double precision, parameter :: f220 = 1.1344d+1
$ double precision, parameter :: f221 = 3.7980d0
$ double precision, parameter :: f222 = 9.1874d+2
$ double precision, parameter :: f223 = 4.0354d+1
$ double precision, parameter :: f224 = 8.1154d-7
$ double precision, parameter :: f225 = 1.5865d-4
$ double precision, parameter :: f226 = 2.5530d-5
$ double precision, parameter :: f227 = 3.9357d-5
$ double precision, parameter :: f228 = 2.3782d+2
$ double precision, parameter :: f229 = 9.2956d-3
$ double precision, parameter :: f230 = 1.9729d-7
$ double precision, parameter :: f231 = 5.8971d+1
$ double precision, parameter :: f232 = 1.5044d-6
$ double precision, parameter :: f233 = 4.5238d+2
$ double precision, parameter :: f234 = 1.5144d+1
$ double precision, parameter :: f235 = 8.2738d-8
$ double precision, parameter :: f236 = 2.5703d-7
$ double precision, parameter :: f237 = 1.2596d-1
$ double precision, parameter :: f238 = 2.9170d-2
$ double precision, parameter :: f239 = 2.9064d-5
$ double precision, parameter :: f240 = 9.4607d+2
$ double precision, parameter :: f241 = 2.9416d-3
$ double precision, parameter :: f242 = 3.6441d-4
$ double precision, parameter :: f243 = 6.0473d-3
$ double precision, parameter :: f244 = 2.7127d-5
$ double precision, parameter :: f245 = 2.7435d-5
$ double precision, parameter :: f246 = 3.7468d-8
$ double precision, parameter :: f247 = 1.9252d-7
$ double precision, parameter :: f248 = 3.5497d-5
$ double precision, parameter :: f249 = 1.1660d+2
$ double precision, parameter :: f250 = 1.3870d-4
$ double precision, parameter :: f251 = 1.0280d0
$ double precision, parameter :: f252 = 1.4604d-2
$ double precision, parameter :: f253 = 1.3513d-4
$ double precision, parameter :: f254 = 7.2610d-2
$ double precision, parameter :: f255 = 1.8269d-2
$ double precision, parameter :: f256 = 2.1769d0
$ double precision, parameter :: f257 = 3.0347d-1
$ double precision, parameter :: f258 = 3.6772d+2
$ double precision, parameter :: f259 = 4.0754d-3
$ double precision, parameter :: f260 = 6.9806d+2
$ double precision, parameter :: f261 = 3.4730d-5
$ double precision, parameter :: f262 = 1.4607d-6
$ double precision, parameter :: f263 = 5.5653d0
$ double precision, parameter :: f264 = 2.1167d-4
$ double precision, parameter :: f265 = 8.7039d-5
$ double precision, parameter :: f266 = 3.3779d-6
$ double precision, parameter :: f267 = 1.2590d-1
$ double precision, parameter :: f268 = 5.3498d-7
$ double precision, parameter :: f269 = 4.7211d-6
$ double precision, parameter :: f270 = 4.2560d-1
$ double precision, parameter :: f271 = 4.2580d-2
$ double precision, parameter :: f272 = 5.5513d+1
$ double precision, parameter :: f273 = 5.7461d-3
$ double precision, parameter :: f274 = 2.9734d+2
$ double precision, parameter :: f275 = 1.0274d-1
$ double precision, parameter :: f276 = 1.8462d-7
$ double precision, parameter :: f277 = 9.1458d-7
$ double precision, parameter :: f278 = 4.5309d0
$ double precision, parameter :: f279 = 1.5932d-1
$ double precision, parameter :: f280 = 1.2003d0
$ double precision, parameter :: f281 = 3.2354d-6
$ double precision, parameter :: f282 = 6.8202d+1
$ double precision, parameter :: f283 = 1.4289d+1
$ double precision, parameter :: f284 = 2.3790d-7
$ double precision, parameter :: f285 = 2.6907d-6
$ double precision, parameter :: f286 = 9.8986d-8
$ double precision, parameter :: f287 = 2.2769d0
$ double precision, parameter :: f288 = 1.0491d0
$ double precision, parameter :: f289 = 2.4364d-4
$ double precision, parameter :: f290 = 3.1804d-6
$ double precision, parameter :: f291 = 9.6783d-7
$ double precision, parameter :: f292 = 8.8168d-6
$ double precision, parameter :: f293 = 2.7021d-3
$ double precision, parameter :: f294 = 6.9677d-6
$ double precision, parameter :: f295 = 6.0783d+2
$ double precision, parameter :: f296 = 9.0993d-5
$ double precision, parameter :: f297 = 9.8142d-3
$ double precision, parameter :: f298 = 2.9746d+2
$ double precision, parameter :: f299 = 9.5140d-5
$ double precision, parameter :: f300 = 1.4360d-4
$ double precision, parameter :: f301 = 2.1361d-2
$ double precision, parameter :: f302 = 1.4419d+2
$ double precision, parameter :: f303 = 1.6111d-5
$ double precision, parameter :: f304 = 2.8407d+2
$ double precision, parameter :: f305 = 3.7601d-1
$ double precision, parameter :: f306 = 1.0649d-6
$ double precision, parameter :: f307 = 9.4248d+2
$ double precision, parameter :: f308 = 1.9867d-5
$ double precision, parameter :: f309 = 2.4396d-7
$ double precision, parameter :: f310 = 1.2637d+1
$ double precision, parameter :: f311 = 4.2256d-3
$ double precision, parameter :: f312 = 7.2243d+1
$ double precision, parameter :: f313 = 3.4958d-6
$ double precision, parameter :: f314 = 6.6901d-4
$ double precision, parameter :: f315 = 1.9636d-1

# Electron Collision Reaction
e + CH4 => e + CH4(v24)		! f0 * Bolsig+ CH4 -> CH4(v24)
e + CH4 => e + CH4(v13)		! f1 * Bolsig+ CH4 -> CH4(v13)
e + C2H6 => e + C2H6(v24)		! f2 * Bolsig+ C2H6 -> C2H6(v24)
e + C2H6 => e + C2H6(v13)		! f3 * Bolsig+ C2H6 -> C2H6(v13)
e + C2H4 => e + C2H4(v1)		! f4 * Bolsig+ C2H4 -> C2H4(v1)
e + C2H4 => e + C2H4(v2)		! f5 * Bolsig+ C2H4 -> C2H4(v2)
e + C2H2 => e + C2H2(v5)		! f6 * Bolsig+ C2H2 -> C2H2(v5)
e + C2H2 => e + C2H2(v2)		! f7 * Bolsig+ C2H2 -> C2H2(v2)
e + C2H2 => e + C2H2(v13)		! f8 * Bolsig+ C2H2 -> C2H2(v13)
e + C3H8 => e + C3H8(v1)		! f9 * Bolsig+ C3H8 -> C3H8(v1)
e + C3H8 => e + C3H8(v2)		! f10 * Bolsig+ C3H8 -> C3H8(v2)
e + C3H6 => e + C3H6(v)		! f11 * Bolsig+ C3H6 -> C3H6(v)
e + CH4 => e + CH3 + H		! f12 * Bolsig+ CH4 -> CH3 H
e + CH4(v24) => e + CH3 + H		! f12 * Bolsig+ CH4(v24) -> CH3 H
e + CH4(v13) => e + CH3 + H		! f12 * Bolsig+ CH4(v13) -> CH3 H
e + CH4 => e + CH2 + H2		! f13 * Bolsig+ CH4 -> CH2 H2
e + CH4(v24) => e + CH2 + H2		! f13 * Bolsig+ CH4(v24) -> CH2 H2
e + CH4(v13) => e + CH2 + H2		! f13 * Bolsig+ CH4(v13) -> CH2 H2
e + CH4 => e + CH + H2 + H		! f14 * Bolsig+ CH4 -> CH H2 H
e + CH4(v24) => e + CH + H2 + H		! f14 * Bolsig+ CH4(v24) -> CH H2 H
e + CH4(v13) => e + CH + H2 + H		! f14 * Bolsig+ CH4(v13) -> CH H2 H
e + CH4 => e + C + H2 + H2		! f15 * Bolsig+ CH4 -> C H2 H2
e + CH4(v24) => e + C + H2 + H2		! f15 * Bolsig+ CH4(v24) -> C H2 H2
e + CH4(v13) => e + C + H2 + H2		! f15 * Bolsig+ CH4(v13) -> C H2 H2
e + CH3 => e + CH2 + H		! f16 * Bolsig+ CH3 -> CH2 H
e + CH3 => e + CH + H2		! f17 * Bolsig+ CH3 -> CH H2
e + CH3 => e + C + H2 + H		! f18 * Bolsig+ CH3 -> C H2 H
e + CH2 => e + CH + H		! f19 * Bolsig+ CH2 -> CH H
e + CH2 => e + C + H2		! f20 * Bolsig+ CH2 -> C H2
e + CH2 => e + C + H + H		! f21 * Bolsig+ CH2 -> C H H
e + CH => e + C + H		! f22 * Bolsig+ CH -> C H
e + CH4 => e + e + CH4^+		! f23 * Bolsig+ CH4 -> CH4^+
e + CH4(v24) => e + e + CH4^+		! f23 * Bolsig+ CH4(v24) -> CH4^+
e + CH4(v13) => e + e + CH4^+		! f23 * Bolsig+ CH4(v13) -> CH4^+
e + CH4 => e + e + H + CH3^+		! f24 * Bolsig+ CH4 -> H CH3^+
e + CH4(v24) => e + e + H + CH3^+		! f24 * Bolsig+ CH4(v24) -> H CH3^+
e + CH4(v13) => e + e + H + CH3^+		! f24 * Bolsig+ CH4(v13) -> H CH3^+
e + CH4 => e + e + H2 + CH2^+		! f25 * Bolsig+ CH4 -> H2 CH2^+
e + CH4(v24) => e + e + H2 + CH2^+		! f25 * Bolsig+ CH4(v24) -> H2 CH2^+
e + CH4(v13) => e + e + H2 + CH2^+		! f25 * Bolsig+ CH4(v13) -> H2 CH2^+
e + CH4 => e + e + H2 + H + CH^+		! f26 * Bolsig+ CH4 -> H2 H CH^+
e + CH4(v24) => e + e + H2 + H + CH^+		! f26 * Bolsig+ CH4(v24) -> H2 H CH^+
e + CH4(v13) => e + e + H2 + H + CH^+		! f26 * Bolsig+ CH4(v13) -> H2 H CH^+
e + CH3 => e + e + CH3^+		! f27 * Bolsig+ CH3 -> CH3^+
e + CH3 => e + e + H + CH2^+		! f28 * Bolsig+ CH3 -> H CH2^+
e + CH3 => e + e + H2 + CH^+		! f29 * Bolsig+ CH3 -> H2 CH^+
e + CH2 => e + e + CH2^+		! f30 * Bolsig+ CH2 -> CH2^+
e + CH2 => e + e + H + CH^+		! f31 * Bolsig+ CH2 -> H CH^+
e + CH => e + e + CH^+		! f32 * Bolsig+ CH -> CH^+
e + C2H6 => e + C2H5 + H		! f33 * Bolsig+ C2H6 -> C2H5 H
e + C2H6(v24) => e + C2H5 + H		! f33 * Bolsig+ C2H6(v24) -> C2H5 H
e + C2H6(v13) => e + C2H5 + H		! f33 * Bolsig+ C2H6(v13) -> C2H5 H
e + C2H6 => e + C2H4 + H2		! f34 * Bolsig+ C2H6 -> C2H4 H2
e + C2H6(v24) => e + C2H4 + H2		! f34 * Bolsig+ C2H6(v24) -> C2H4 H2
e + C2H6(v13) => e + C2H4 + H2		! f34 * Bolsig+ C2H6(v13) -> C2H4 H2
e + C2H6 => e + C2H3 + H2 + H		! f35 * Bolsig+ C2H6 -> C2H3 H2 H
e + C2H6(v24) => e + C2H3 + H2 + H		! f35 * Bolsig+ C2H6(v24) -> C2H3 H2 H
e + C2H6(v13) => e + C2H3 + H2 + H		! f35 * Bolsig+ C2H6(v13) -> C2H3 H2 H
e + C2H6 => e + C2H2 + H2 + H2		! f36 * Bolsig+ C2H6 -> C2H2 H2 H2
e + C2H6(v24) => e + C2H2 + H2 + H2		! f36 * Bolsig+ C2H6(v24) -> C2H2 H2 H2
e + C2H6(v13) => e + C2H2 + H2 + H2		! f36 * Bolsig+ C2H6(v13) -> C2H2 H2 H2
e + C2H6 => e + CH4 + CH2		! f37 * Bolsig+ C2H6 -> CH4 CH2
e + C2H6(v24) => e + CH4 + CH2		! f37 * Bolsig+ C2H6(v24) -> CH4 CH2
e + C2H6(v13) => e + CH4 + CH2		! f37 * Bolsig+ C2H6(v13) -> CH4 CH2
e + C2H6 => e + CH3 + CH3		! f38 * Bolsig+ C2H6 -> CH3 CH3
e + C2H6(v24) => e + CH3 + CH3		! f38 * Bolsig+ C2H6(v24) -> CH3 CH3
e + C2H6(v13) => e + CH3 + CH3		! f38 * Bolsig+ C2H6(v13) -> CH3 CH3
e + C2H5 => e + C2H4 + H		! f39 * Bolsig+ C2H5 -> C2H4 H
e + C2H5 => e + C2H3 + H2		! f40 * Bolsig+ C2H5 -> C2H3 H2
e + C2H5 => e + C2H3 + H + H		! f41 * Bolsig+ C2H5 -> C2H3 H H
e + C2H5 => e + C2H2 + H2 + H		! f42 * Bolsig+ C2H5 -> C2H2 H2 H
e + C2H5 => e + CH4 + CH		! f43 * Bolsig+ C2H5 -> CH4 CH
e + C2H5 => e + CH3 + CH2		! f44 * Bolsig+ C2H5 -> CH3 CH2
e + C2H4 => e + C2H3 + H		! f45 * Bolsig+ C2H4 -> C2H3 H
e + C2H4(v1) => e + C2H3 + H		! f45 * Bolsig+ C2H4(v1) -> C2H3 H
e + C2H4(v2) => e + C2H3 + H		! f45 * Bolsig+ C2H4(v2) -> C2H3 H
e + C2H4 => e + C2H2 + H2		! f46 * Bolsig+ C2H4 -> C2H2 H2
e + C2H4(v1) => e + C2H2 + H2		! f46 * Bolsig+ C2H4(v1) -> C2H2 H2
e + C2H4(v2) => e + C2H2 + H2		! f46 * Bolsig+ C2H4(v2) -> C2H2 H2
e + C2H4 => e + C2H2 + H + H		! f47 * Bolsig+ C2H4 -> C2H2 H H
e + C2H4(v1) => e + C2H2 + H + H		! f47 * Bolsig+ C2H4(v1) -> C2H2 H H
e + C2H4(v2) => e + C2H2 + H + H		! f47 * Bolsig+ C2H4(v2) -> C2H2 H H
e + C2H4 => e + CH3 + CH		! f48 * Bolsig+ C2H4 -> CH3 CH
e + C2H4(v1) => e + CH3 + CH		! f48 * Bolsig+ C2H4(v1) -> CH3 CH
e + C2H4(v2) => e + CH3 + CH		! f48 * Bolsig+ C2H4(v2) -> CH3 CH
e + C2H4 => e + CH2 + CH2		! f49 * Bolsig+ C2H4 -> CH2 CH2
e + C2H4(v1) => e + CH2 + CH2		! f49 * Bolsig+ C2H4(v1) -> CH2 CH2
e + C2H4(v2) => e + CH2 + CH2		! f49 * Bolsig+ C2H4(v2) -> CH2 CH2
e + C2H3 => e + C2H2 + H		! f50 * Bolsig+ C2H3 -> C2H2 H
e + C2H3 => e + CH2 + CH		! f51 * Bolsig+ C2H3 -> CH2 CH
e + C2H2 => e + CH + CH		! f52 * Bolsig+ C2H2 -> CH CH
e + C2H2(v5) => e + CH + CH		! f52 * Bolsig+ C2H2(v5) -> CH CH
e + C2H2(v2) => e + CH + CH		! f52 * Bolsig+ C2H2(v2) -> CH CH
e + C2H2(v13) => e + CH + CH		! f52 * Bolsig+ C2H2(v13) -> CH CH
e + C2H6 => e + e + C2H6^+		! f53 * Bolsig+ C2H6 -> C2H6^+
e + C2H6(v24) => e + e + C2H6^+		! f53 * Bolsig+ C2H6(v24) -> C2H6^+
e + C2H6(v13) => e + e + C2H6^+		! f53 * Bolsig+ C2H6(v13) -> C2H6^+
e + C2H6 => e + e + H + C2H5^+		! f54 * Bolsig+ C2H6 -> H C2H5^+
e + C2H6(v24) => e + e + H + C2H5^+		! f54 * Bolsig+ C2H6(v24) -> H C2H5^+
e + C2H6(v13) => e + e + H + C2H5^+		! f54 * Bolsig+ C2H6(v13) -> H C2H5^+
e + C2H6 => e + e + H2 + C2H4^+		! f55 * Bolsig+ C2H6 -> H2 C2H4^+
e + C2H6(v24) => e + e + H2 + C2H4^+		! f55 * Bolsig+ C2H6(v24) -> H2 C2H4^+
e + C2H6(v13) => e + e + H2 + C2H4^+		! f55 * Bolsig+ C2H6(v13) -> H2 C2H4^+
e + C2H6 => e + e + H2 + H + C2H3^+		! f56 * Bolsig+ C2H6 -> H2 H C2H3^+
e + C2H6(v24) => e + e + H2 + H + C2H3^+		! f56 * Bolsig+ C2H6(v24) -> H2 H C2H3^+
e + C2H6(v13) => e + e + H2 + H + C2H3^+		! f56 * Bolsig+ C2H6(v13) -> H2 H C2H3^+
e + C2H6 => e + e + H2 + H2 + C2H2^+		! f57 * Bolsig+ C2H6 -> H2 H2 C2H2^+
e + C2H6(v24) => e + e + H2 + H2 + C2H2^+		! f57 * Bolsig+ C2H6(v24) -> H2 H2 C2H2^+
e + C2H6(v13) => e + e + H2 + H2 + C2H2^+		! f57 * Bolsig+ C2H6(v13) -> H2 H2 C2H2^+
e + C2H6 => e + e + CH3 + CH3^+		! f58 * Bolsig+ C2H6 -> CH3 CH3^+
e + C2H6(v24) => e + e + CH3 + CH3^+		! f58 * Bolsig+ C2H6(v24) -> CH3 CH3^+
e + C2H6(v13) => e + e + CH3 + CH3^+		! f58 * Bolsig+ C2H6(v13) -> CH3 CH3^+
e + C2H6 => e + e + CH4 + CH2^+		! f59 * Bolsig+ C2H6 -> CH4 CH2^+
e + C2H6(v24) => e + e + CH4 + CH2^+		! f59 * Bolsig+ C2H6(v24) -> CH4 CH2^+
e + C2H6(v13) => e + e + CH4 + CH2^+		! f59 * Bolsig+ C2H6(v13) -> CH4 CH2^+
e + C2H5 => e + e + C2H5^+		! f60 * Bolsig+ C2H5 -> C2H5^+
e + C2H5 => e + e + H + C2H4^+		! f61 * Bolsig+ C2H5 -> H C2H4^+
e + C2H5 => e + e + H2 + C2H3^+		! f62 * Bolsig+ C2H5 -> H2 C2H3^+
e + C2H5 => e + e + H2 + H + C2H2^+		! f63 * Bolsig+ C2H5 -> H2 H C2H2^+
e + C2H5 => e + e + CH2 + CH3^+		! f64 * Bolsig+ C2H5 -> CH2 CH3^+
e + C2H5 => e + e + CH3 + CH2^+		! f65 * Bolsig+ C2H5 -> CH3 CH2^+
e + C2H5 => e + e + CH4 + CH^+		! f66 * Bolsig+ C2H5 -> CH4 CH^+
e + C2H4 => e + e + C2H4^+		! f67 * Bolsig+ C2H4 -> C2H4^+
e + C2H4(v1) => e + e + C2H4^+		! f67 * Bolsig+ C2H4(v1) -> C2H4^+
e + C2H4(v2) => e + e + C2H4^+		! f67 * Bolsig+ C2H4(v2) -> C2H4^+
e + C2H4 => e + e + H + C2H3^+		! f68 * Bolsig+ C2H4 -> H C2H3^+
e + C2H4(v1) => e + e + H + C2H3^+		! f68 * Bolsig+ C2H4(v1) -> H C2H3^+
e + C2H4(v2) => e + e + H + C2H3^+		! f68 * Bolsig+ C2H4(v2) -> H C2H3^+
e + C2H4 => e + e + CH + CH3^+		! f69 * Bolsig+ C2H4 -> CH CH3^+
e + C2H4(v1) => e + e + CH + CH3^+		! f69 * Bolsig+ C2H4(v1) -> CH CH3^+
e + C2H4(v2) => e + e + CH + CH3^+		! f69 * Bolsig+ C2H4(v2) -> CH CH3^+
e + C2H4 => e + e + CH2 + CH2^+		! f70 * Bolsig+ C2H4 -> CH2 CH2^+
e + C2H4(v1) => e + e + CH2 + CH2^+		! f70 * Bolsig+ C2H4(v1) -> CH2 CH2^+
e + C2H4(v2) => e + e + CH2 + CH2^+		! f70 * Bolsig+ C2H4(v2) -> CH2 CH2^+
e + C2H4 => e + e + CH3 + CH^+		! f71 * Bolsig+ C2H4 -> CH3 CH^+
e + C2H4(v1) => e + e + CH3 + CH^+		! f71 * Bolsig+ C2H4(v1) -> CH3 CH^+
e + C2H4(v2) => e + e + CH3 + CH^+		! f71 * Bolsig+ C2H4(v2) -> CH3 CH^+
e + C2H3 => e + e + C2H3^+		! f72 * Bolsig+ C2H3 -> C2H3^+
e + C2H3 => e + e + H + C2H2^+		! f73 * Bolsig+ C2H3 -> H C2H2^+
e + C2H3 => e + e + CH + CH2^+		! f74 * Bolsig+ C2H3 -> CH CH2^+
e + C2H3 => e + e + CH2 + CH^+		! f75 * Bolsig+ C2H3 -> CH2 CH^+
e + C2H3 => e + e + C2H2 + H^+		! f76 * Bolsig+ C2H3 -> C2H2 H^+
e + C2H2 => e + e + C2H2^+		! f77 * Bolsig+ C2H2 -> C2H2^+
e + C2H2(v5) => e + e + C2H2^+		! f77 * Bolsig+ C2H2(v5) -> C2H2^+
e + C2H2(v2) => e + e + C2H2^+		! f77 * Bolsig+ C2H2(v2) -> C2H2^+
e + C2H2(v13) => e + e + C2H2^+		! f77 * Bolsig+ C2H2(v13) -> C2H2^+
e + C2H2 => e + e + CH + CH^+		! f78 * Bolsig+ C2H2 -> CH CH^+
e + C2H2(v5) => e + e + CH + CH^+		! f78 * Bolsig+ C2H2(v5) -> CH CH^+
e + C2H2(v2) => e + e + CH + CH^+		! f78 * Bolsig+ C2H2(v2) -> CH CH^+
e + C2H2(v13) => e + e + CH + CH^+		! f78 * Bolsig+ C2H2(v13) -> CH CH^+
e + C3H8 => e + C3H7 + H		! f79 * Bolsig+ C3H8 -> C3H7 H
e + C3H8(v1) => e + C3H7 + H		! f79 * Bolsig+ C3H8(v1) -> C3H7 H
e + C3H8(v2) => e + C3H7 + H		! f79 * Bolsig+ C3H8(v2) -> C3H7 H
e + C3H8 => e + C3H6 + H2		! f80 * Bolsig+ C3H8 -> C3H6 H2
e + C3H8(v1) => e + C3H6 + H2		! f80 * Bolsig+ C3H8(v1) -> C3H6 H2
e + C3H8(v2) => e + C3H6 + H2		! f80 * Bolsig+ C3H8(v2) -> C3H6 H2
e + C3H7 => e + C3H6 + H		! f81 * Bolsig+ C3H7 -> C3H6 H
e + C3H8 => e + e + C3H8^+		! f82 * Bolsig+ C3H8 -> C3H8^+
e + C3H8(v1) => e + e + C3H8^+		! f82 * Bolsig+ C3H8(v1) -> C3H8^+
e + C3H8(v2) => e + e + C3H8^+		! f82 * Bolsig+ C3H8(v2) -> C3H8^+
e + C3H8 => e + e + H + C3H7^+		! f83 * Bolsig+ C3H8 -> H C3H7^+
e + C3H8(v1) => e + e + H + C3H7^+		! f83 * Bolsig+ C3H8(v1) -> H C3H7^+
e + C3H8(v2) => e + e + H + C3H7^+		! f83 * Bolsig+ C3H8(v2) -> H C3H7^+
e + C3H8 => e + e + H2 + C3H6^+		! f84 * Bolsig+ C3H8 -> H2 C3H6^+
e + C3H8(v1) => e + e + H2 + C3H6^+		! f84 * Bolsig+ C3H8(v1) -> H2 C3H6^+
e + C3H8(v2) => e + e + H2 + C3H6^+		! f84 * Bolsig+ C3H8(v2) -> H2 C3H6^+
e + C3H7 => e + e + C3H7^+		! f85 * Bolsig+ C3H7 -> C3H7^+
e + C3H7 => e + e + H + C3H6^+		! f86 * Bolsig+ C3H7 -> H C3H6^+
e + C3H6 => e + e + C3H6^+		! f87 * Bolsig+ C3H6 -> C3H6^+
e + C3H6(v) => e + e + C3H6^+		! f87 * Bolsig+ C3H6(v) -> C3H6^+
e + C3H6 => e + C2H2 + CH4		! f88 * Bolsig+ C3H6 -> C2H2 CH4
e + C3H6(v) => e + C2H2 + CH4		! f88 * Bolsig+ C3H6(v) -> C2H2 CH4
e + C3H6 => e + e + C2H2 + CH4^+		! f89 * Bolsig+ C3H6 -> C2H2 CH4^+
e + C3H6(v) => e + e + C2H2 + CH4^+		! f89 * Bolsig+ C3H6(v) -> C2H2 CH4^+

# Ion Recombination Reaction
e + e + CH^+ => e + CH		! f90 * 1.00d0
e + e + CH2^+ => e + CH2		! f91 * 1.00d0
e + e + CH3^+ => e + CH3		! f92 * 1.00d0
e + e + CH4^+ => e + CH4		! f93 * 1.00d0
e + e + C2H2^+ => e + C2H2		! f94 * 1.00d0
e + e + C2H3^+ => e + C2H3		! f95 * 1.00d0
e + e + C2H4^+ => e + C2H4		! f96 * 1.00d0
e + e + C2H5^+ => e + C2H5		! f97 * 1.00d0
e + e + C2H6^+ => e + C2H6		! f98 * 1.00d0
e + e + C3H6^+ => e + C3H6		! f99 * 1.00d0
e + e + C3H7^+ => e + C3H7		! f100 * 1.00d0
e + e + C3H8^+ => e + C3H8		! f101 * 1.00d0

# Gas Phase Reaction
e + CH4^+ => CH3 + H		! f102 * 1.18d-08 * (300./Tgas)**0.5
e + CH4^+ => CH2 + H + H		! f103 * 2.42d-08 * (300./Tgas)**0.5
e + CH4^+ => CH + H2 + H		! f104 * 1.41d-08 * (300./Tgas)**0.5
e + CH3^+ => CH2 + H		! f105 * 2.25d-08 * (300./Tgas)**0.5
e + CH3^+ => CH + H2		! f106 * 7.88d-09 * (300./Tgas)**0.5
e + CH3^+ => CH + H + H		! f107 * 9.00d-09 * (300./Tgas)**0.5
e + CH3^+ => C + H2 + H		! f108 * 1.69d-08 * (300./Tgas)**0.5
e + CH2^+ => CH + H		! f109 * 1.00d-08 * (300./Tgas)**0.5
e + CH2^+ => C + H2		! f110 * 4.82d-09 * (300./Tgas)**0.5
e + CH2^+ => C + H + H		! f111 * 2.53d-08 * (300./Tgas)**0.5
e + CH^+ => C + H		! f112 * 3.23d-08 * (300./Tgas)**0.42
e + C2H6^+ => C2H5 + H		! f113 * 2.19d-08 * (300./Tgas)**0.71
e + C2H6^+ => C2H4 + H + H		! f114 * 3.36d-08 * (300./Tgas)**0.71
e + C2H5^+ => C2H4 + H		! f115 * 7.70d-09 * (300./Tgas)**0.71
e + C2H5^+ => C2H3 + H + H		! f116 * 1.92d-08 * (300./Tgas)**0.71
e + C2H5^+ => C2H2 + H2 + H		! f117 * 1.60d-08 * (300./Tgas)**0.71
e + C2H5^+ => C2H2 + H + H + H		! f118 * 8.98d-09 * (300./Tgas)**0.71
e + C2H5^+ => CH3 + CH2		! f119 * 9.62d-09 * (300./Tgas)**0.71
e + C2H4^+ => C2H3 + H		! f120 * 8.29d-09 * (300./Tgas)**0.71
e + C2H4^+ => C2H2 + H + H		! f121 * 3.43d-08 * (300./Tgas)**0.71
e + C2H3^+ => C2H2 + H		! f122 * 1.34d-08 * (300./Tgas)**0.71
e + C2H2^+ => CH + CH		! f123 * 4.87d-09 * (300./Tgas)**0.71
e + H2^+ => H + H		! f124 * 3.17d21/(6.022d23 * Te**4.5)
e + H3^+ => H + H2		! f125 * 3.17d21/(6.022d23 * Te**4.5)
H2 + H2^+ => H + H3^+		! f126 * 2.11d-09
C2H6 + CH4^+ => CH4 + H2 + C2H4^+		! f127 * 1.91d-9
C2H6(v24) + CH4^+ => CH4 + H2 + C2H4^+		! f127 * 1.91d-9
C2H6(v13) + CH4^+ => CH4 + H2 + C2H4^+		! f127 * 1.91d-9
C2H4 + CH4^+ => CH3 + C2H5^+		! f128 * 4.23d-10