ELEMENTS
e C H
END

SPECIES
e C CH CH^+ CH2 CH2^+ CH3 CH3^+ CH4 CH4(v13) CH4(v24) CH4^+ C2H2 C2H2(v13) C2H2(v2) C2H2(v5) C2H2^+ C2H3 C2H3^+ C2H4 C2H4(v1) C2H4(v2) C2H4^+ C2H5 C2H5^+
C2H6 C2H6(v13) C2H6(v24) C2H6^+ C3H5 C3H6 C3H6(v) C3H6^+ C3H7 C3H7^+ C3H8 C3H8(v1) C3H8(v2) C3H8^+ C4H9 C4H9H C2H C5H12 H H2 H2^+ H3^+ H^+
END

BOLSIG
CH CH2 CH3 CH4 CH4(v13) CH4(v24) C2H2 C2H2(v13) C2H2(v2) C2H2(v5) C2H3 C2H4 C2H4(v1) C2H4(v2) C2H5 C2H6 C2H6(v13) C2H6(v24) C3H6 C3H6(v) C3H7 C3H8 C3H8(v1) C3H8(v2)
END

REACTIONS
# Gas Constant
$ double precision, parameter :: R = 8.314d-3

# Compensation Parameters
$ double precision, parameter :: f0 = 2.3512d-7
$ double precision, parameter :: f1 = 5.7140d-7
$ double precision, parameter :: f2 = 4.5032d-4
$ double precision, parameter :: f3 = 2.2325d+2
$ double precision, parameter :: f4 = 2.2695d-4
$ double precision, parameter :: f5 = 3.0641d+1
$ double precision, parameter :: f6 = 1.6993d-8
$ double precision, parameter :: f7 = 1.7499d-4
$ double precision, parameter :: f8 = 3.6216d-8
$ double precision, parameter :: f9 = 6.2587d-8
$ double precision, parameter :: f10 = 1.9966d-6
$ double precision, parameter :: f11 = 3.0571d-7
$ double precision, parameter :: f12 = 4.6723d-5
$ double precision, parameter :: f13 = 4.5722d-1
$ double precision, parameter :: f14 = 2.3208d+2
$ double precision, parameter :: f15 = 9.5964d-1
$ double precision, parameter :: f16 = 4.4062d-8
$ double precision, parameter :: f17 = 6.1575d-1
$ double precision, parameter :: f18 = 2.1493d-2
$ double precision, parameter :: f19 = 1.0517d-6
$ double precision, parameter :: f20 = 4.2313d-6
$ double precision, parameter :: f21 = 1.1637d-7
$ double precision, parameter :: f22 = 4.3107d-8
$ double precision, parameter :: f23 = 1.3337d+2
$ double precision, parameter :: f24 = 1.1613d-6
$ double precision, parameter :: f25 = 1.3624d-8
$ double precision, parameter :: f26 = 6.3105d0
$ double precision, parameter :: f27 = 4.6285d-1
$ double precision, parameter :: f28 = 2.3900d-6
$ double precision, parameter :: f29 = 1.3383d-1
$ double precision, parameter :: f30 = 9.6577d-6
$ double precision, parameter :: f31 = 3.8263d-2
$ double precision, parameter :: f32 = 2.8145d+2
$ double precision, parameter :: f33 = 2.1351d-5
$ double precision, parameter :: f34 = 5.8908d+1
$ double precision, parameter :: f35 = 6.0745d-8
$ double precision, parameter :: f36 = 2.3382d-4
$ double precision, parameter :: f37 = 4.9383d0
$ double precision, parameter :: f38 = 3.9998d-4
$ double precision, parameter :: f39 = 2.6343d-2
$ double precision, parameter :: f40 = 8.1714d+1
$ double precision, parameter :: f41 = 7.9999d-8
$ double precision, parameter :: f42 = 1.9805d+1
$ double precision, parameter :: f43 = 1.4417d-4
$ double precision, parameter :: f44 = 1.8005d-7
$ double precision, parameter :: f45 = 4.3448d+2
$ double precision, parameter :: f46 = 9.0723d-1
$ double precision, parameter :: f47 = 1.7516d-4
$ double precision, parameter :: f48 = 2.4153d-5
$ double precision, parameter :: f49 = 1.6273d-6
$ double precision, parameter :: f50 = 4.9455d-7
$ double precision, parameter :: f51 = 2.5379d-8
$ double precision, parameter :: f52 = 4.4230d-2
$ double precision, parameter :: f53 = 9.5485d-5
$ double precision, parameter :: f54 = 8.4655d-2
$ double precision, parameter :: f55 = 2.7603d-5
$ double precision, parameter :: f56 = 2.2022d-6
$ double precision, parameter :: f57 = 2.5046d-8
$ double precision, parameter :: f58 = 7.9254d-1
$ double precision, parameter :: f59 = 3.6722d+1
$ double precision, parameter :: f60 = 2.7837d-7
$ double precision, parameter :: f61 = 1.8458d+1
$ double precision, parameter :: f62 = 8.0594d-6
$ double precision, parameter :: f63 = 6.1861d-6
$ double precision, parameter :: f64 = 2.9742d-3
$ double precision, parameter :: f65 = 2.1545d-5
$ double precision, parameter :: f66 = 9.9850d-6
$ double precision, parameter :: f67 = 1.0022d-1
$ double precision, parameter :: f68 = 1.7913d-8
$ double precision, parameter :: f69 = 1.0148d-5
$ double precision, parameter :: f70 = 1.0489d+2
$ double precision, parameter :: f71 = 3.2436d-3
$ double precision, parameter :: f72 = 4.6344d-2
$ double precision, parameter :: f73 = 1.0530d-1
$ double precision, parameter :: f74 = 3.2912d0
$ double precision, parameter :: f75 = 3.2547d-3
$ double precision, parameter :: f76 = 1.5373d+1
$ double precision, parameter :: f77 = 1.2450d+2
$ double precision, parameter :: f78 = 7.7835d+1
$ double precision, parameter :: f79 = 8.1464d-6
$ double precision, parameter :: f80 = 3.6284d-1
$ double precision, parameter :: f81 = 1.1058d0
$ double precision, parameter :: f82 = 5.3613d0
$ double precision, parameter :: f83 = 1.3944d+2
$ double precision, parameter :: f84 = 4.9887d-5
$ double precision, parameter :: f85 = 3.3744d+1
$ double precision, parameter :: f86 = 6.3589d-2
$ double precision, parameter :: f87 = 2.0402d-6
$ double precision, parameter :: f88 = 5.2914d-5
$ double precision, parameter :: f89 = 4.4486d-4
$ double precision, parameter :: f90 = 9.0942d-4
$ double precision, parameter :: f91 = 5.4720d-4
$ double precision, parameter :: f92 = 2.6373d-3
$ double precision, parameter :: f93 = 5.5269d-8
$ double precision, parameter :: f94 = 4.0039d+1
$ double precision, parameter :: f95 = 6.7171d-7
$ double precision, parameter :: f96 = 5.3691d-2
$ double precision, parameter :: f97 = 2.3557d-3
$ double precision, parameter :: f98 = 1.9630d-8
$ double precision, parameter :: f99 = 6.1462d+1
$ double precision, parameter :: f100 = 8.3676d-6
$ double precision, parameter :: f101 = 2.3828d-7
$ double precision, parameter :: f102 = 4.2777d0
$ double precision, parameter :: f103 = 4.1859d-8
$ double precision, parameter :: f104 = 4.0247d-7
$ double precision, parameter :: f105 = 7.5601d-7
$ double precision, parameter :: f106 = 3.5887d+2
$ double precision, parameter :: f107 = 3.1139d-2
$ double precision, parameter :: f108 = 6.7754d-3
$ double precision, parameter :: f109 = 5.4159d+2
$ double precision, parameter :: f110 = 8.3742d-7
$ double precision, parameter :: f111 = 6.0102d-8
$ double precision, parameter :: f112 = 3.4261d+1
$ double precision, parameter :: f113 = 1.1102d-2
$ double precision, parameter :: f114 = 3.7664d+2
$ double precision, parameter :: f115 = 6.3098d-7
$ double precision, parameter :: f116 = 6.4679d-4
$ double precision, parameter :: f117 = 1.7067d+1
$ double precision, parameter :: f118 = 2.2566d-7
$ double precision, parameter :: f119 = 1.0197d+1
$ double precision, parameter :: f120 = 2.7686d+1
$ double precision, parameter :: f121 = 4.8095d-8
$ double precision, parameter :: f122 = 9.0161d-8
$ double precision, parameter :: f123 = 8.1305d+2
$ double precision, parameter :: f124 = 2.7261d-4
$ double precision, parameter :: f125 = 5.7778d+1
$ double precision, parameter :: f126 = 5.1710d-2
$ double precision, parameter :: f127 = 1.4421d-2
$ double precision, parameter :: f128 = 2.1283d-1
$ double precision, parameter :: f129 = 1.3656d0
$ double precision, parameter :: f130 = 6.0482d-7
$ double precision, parameter :: f131 = 1.2101d-7
$ double precision, parameter :: f132 = 5.3177d-1
$ double precision, parameter :: f133 = 1.9517d-6
$ double precision, parameter :: f134 = 5.6271d-6
$ double precision, parameter :: f135 = 1.0106d-8
$ double precision, parameter :: f136 = 1.5781d-2
$ double precision, parameter :: f137 = 2.8464d-2
$ double precision, parameter :: f138 = 1.7248d-8
$ double precision, parameter :: f139 = 7.1297d-5
$ double precision, parameter :: f140 = 1.1230d-4
$ double precision, parameter :: f141 = 2.6303d+2
$ double precision, parameter :: f142 = 1.7854d-6
$ double precision, parameter :: f143 = 6.3105d0
$ double precision, parameter :: f144 = 4.3694d+1
$ double precision, parameter :: f145 = 8.9925d-1
$ double precision, parameter :: f146 = 5.6424d-3
$ double precision, parameter :: f147 = 1.6348d+1
$ double precision, parameter :: f148 = 2.9062d+2
$ double precision, parameter :: f149 = 3.6248d-3
$ double precision, parameter :: f150 = 5.2576d+1
$ double precision, parameter :: f151 = 2.8205d-3
$ double precision, parameter :: f152 = 6.9477d-6
$ double precision, parameter :: f153 = 3.5532d+2
$ double precision, parameter :: f154 = 4.2120d-3
$ double precision, parameter :: f155 = 2.3397d-3
$ double precision, parameter :: f156 = 2.0102d-5
$ double precision, parameter :: f157 = 8.6032d-8
$ double precision, parameter :: f158 = 6.2438d-1
$ double precision, parameter :: f159 = 7.1681d-1
$ double precision, parameter :: f160 = 3.4136d-8
$ double precision, parameter :: f161 = 2.7590d+2
$ double precision, parameter :: f162 = 3.1756d-5
$ double precision, parameter :: f163 = 2.9294d-6
$ double precision, parameter :: f164 = 8.1603d-4
$ double precision, parameter :: f165 = 1.6387d0
$ double precision, parameter :: f166 = 1.0588d-6
$ double precision, parameter :: f167 = 2.1686d0
$ double precision, parameter :: f168 = 1.0083d-4
$ double precision, parameter :: f169 = 2.8027d-1
$ double precision, parameter :: f170 = 4.3429d+2
$ double precision, parameter :: f171 = 1.5967d+1
$ double precision, parameter :: f172 = 2.3964d-3
$ double precision, parameter :: f173 = 1.6080d-3
$ double precision, parameter :: f174 = 2.3594d-5
$ double precision, parameter :: f175 = 3.7658d-3
$ double precision, parameter :: f176 = 8.3766d-7
$ double precision, parameter :: f177 = 4.5641d-6
$ double precision, parameter :: f178 = 1.5761d-6
$ double precision, parameter :: f179 = 8.6534d-7
$ double precision, parameter :: f180 = 1.0683d-1
$ double precision, parameter :: f181 = 4.7086d-7
$ double precision, parameter :: f182 = 3.9406d-1
$ double precision, parameter :: f183 = 6.3854d-6
$ double precision, parameter :: f184 = 2.3662d-4
$ double precision, parameter :: f185 = 1.8082d-4
$ double precision, parameter :: f186 = 1.4353d-3
$ double precision, parameter :: f187 = 3.4212d-3
$ double precision, parameter :: f188 = 4.3309d-5
$ double precision, parameter :: f189 = 1.8289d+2
$ double precision, parameter :: f190 = 1.7434d-2
$ double precision, parameter :: f191 = 3.3254d-6
$ double precision, parameter :: f192 = 1.4008d-7
$ double precision, parameter :: f193 = 4.2282d-1
$ double precision, parameter :: f194 = 2.4231d-4
$ double precision, parameter :: f195 = 3.2519d-7
$ double precision, parameter :: f196 = 9.0760d-8
$ double precision, parameter :: f197 = 5.3238d-2
$ double precision, parameter :: f198 = 4.1270d-3
$ double precision, parameter :: f199 = 2.8252d+2
$ double precision, parameter :: f200 = 1.0687d+2
$ double precision, parameter :: f201 = 4.3859d-6
$ double precision, parameter :: f202 = 9.7111d-1
$ double precision, parameter :: f203 = 1.1751d0
$ double precision, parameter :: f204 = 9.5773d-1
$ double precision, parameter :: f205 = 2.0710d0
$ double precision, parameter :: f206 = 3.0287d0
$ double precision, parameter :: f207 = 5.4742d-6
$ double precision, parameter :: f208 = 5.3575d-6
$ double precision, parameter :: f209 = 1.0002d-4
$ double precision, parameter :: f210 = 3.1589d+2
$ double precision, parameter :: f211 = 8.5210d+1
$ double precision, parameter :: f212 = 1.1887d-3
$ double precision, parameter :: f213 = 6.8693d-6
$ double precision, parameter :: f214 = 1.6839d-7
$ double precision, parameter :: f215 = 1.5630d+2
$ double precision, parameter :: f216 = 1.3191d-7
$ double precision, parameter :: f217 = 4.9450d-4
$ double precision, parameter :: f218 = 6.2641d+1
$ double precision, parameter :: f219 = 1.3975d-2
$ double precision, parameter :: f220 = 2.9732d-5
$ double precision, parameter :: f221 = 1.5847d-1
$ double precision, parameter :: f222 = 1.1169d-4
$ double precision, parameter :: f223 = 8.9825d+2
$ double precision, parameter :: f224 = 8.0845d-5
$ double precision, parameter :: f225 = 8.9433d-8
$ double precision, parameter :: f226 = 1.8636d-5
$ double precision, parameter :: f227 = 3.5034d-3
$ double precision, parameter :: f228 = 1.9230d-2
$ double precision, parameter :: f229 = 1.0581d-7
$ double precision, parameter :: f230 = 1.2706d+1
$ double precision, parameter :: f231 = 1.4587d+1
$ double precision, parameter :: f232 = 6.8335d-1
$ double precision, parameter :: f233 = 2.5144d-2
$ double precision, parameter :: f234 = 8.2145d-5
$ double precision, parameter :: f235 = 4.9746d-8
$ double precision, parameter :: f236 = 4.5207d-2
$ double precision, parameter :: f237 = 1.3696d0
$ double precision, parameter :: f238 = 3.9557d-7
$ double precision, parameter :: f239 = 3.7686d+1
$ double precision, parameter :: f240 = 4.5480d-3
$ double precision, parameter :: f241 = 1.3805d-1
$ double precision, parameter :: f242 = 1.5914d-8
$ double precision, parameter :: f243 = 2.8340d+2
$ double precision, parameter :: f244 = 2.5243d+1
$ double precision, parameter :: f245 = 8.8734d-1
$ double precision, parameter :: f246 = 3.1310d-3
$ double precision, parameter :: f247 = 7.9330d-7
$ double precision, parameter :: f248 = 6.9431d-6
$ double precision, parameter :: f249 = 7.7299d0
$ double precision, parameter :: f250 = 2.0654d0
$ double precision, parameter :: f251 = 9.6014d-7
$ double precision, parameter :: f252 = 6.7488d+2
$ double precision, parameter :: f253 = 2.7444d-1
$ double precision, parameter :: f254 = 3.9775d-2
$ double precision, parameter :: f255 = 7.2823d0
$ double precision, parameter :: f256 = 4.7904d+2
$ double precision, parameter :: f257 = 1.5198d-2
$ double precision, parameter :: f258 = 5.4824d-8
$ double precision, parameter :: f259 = 1.0732d0
$ double precision, parameter :: f260 = 8.4198d-4
$ double precision, parameter :: f261 = 1.4383d+2
$ double precision, parameter :: f262 = 5.3132d-3
$ double precision, parameter :: f263 = 8.9617d-4
$ double precision, parameter :: f264 = 9.0801d0
$ double precision, parameter :: f265 = 1.0482d+1
$ double precision, parameter :: f266 = 7.8207d-3
$ double precision, parameter :: f267 = 2.1981d+1
$ double precision, parameter :: f268 = 1.1600d-6
$ double precision, parameter :: f269 = 1.0042d-3
$ double precision, parameter :: f270 = 2.3467d0
$ double precision, parameter :: f271 = 3.0087d-2
$ double precision, parameter :: f272 = 3.8698d-8
$ double precision, parameter :: f273 = 1.6199d-7
$ double precision, parameter :: f274 = 2.0266d-7
$ double precision, parameter :: f275 = 6.2034d-7
$ double precision, parameter :: f276 = 2.3011d-5
$ double precision, parameter :: f277 = 4.1993d-3
$ double precision, parameter :: f278 = 5.3711d-8
$ double precision, parameter :: f279 = 6.1414d-2
$ double precision, parameter :: f280 = 4.5592d-4
$ double precision, parameter :: f281 = 5.1947d-7
$ double precision, parameter :: f282 = 2.6659d+2
$ double precision, parameter :: f283 = 5.5116d+1
$ double precision, parameter :: f284 = 2.2573d-2
$ double precision, parameter :: f285 = 2.1933d-7
$ double precision, parameter :: f286 = 5.7413d-4
$ double precision, parameter :: f287 = 6.0562d-6
$ double precision, parameter :: f288 = 2.6083d-3
$ double precision, parameter :: f289 = 2.8579d-6
$ double precision, parameter :: f290 = 1.1973d-6
$ double precision, parameter :: f291 = 2.6341d-1
$ double precision, parameter :: f292 = 3.1484d-3
$ double precision, parameter :: f293 = 6.3282d-7
$ double precision, parameter :: f294 = 4.6674d+1
$ double precision, parameter :: f295 = 3.3760d-8
$ double precision, parameter :: f296 = 4.2751d0
$ double precision, parameter :: f297 = 3.6556d+1
$ double precision, parameter :: f298 = 5.5927d-2
$ double precision, parameter :: f299 = 1.1697d-4
$ double precision, parameter :: f300 = 1.7057d-6
$ double precision, parameter :: f301 = 4.2452d-6
$ double precision, parameter :: f302 = 1.7645d+1
$ double precision, parameter :: f303 = 2.1676d-8
$ double precision, parameter :: f304 = 3.6779d-7
$ double precision, parameter :: f305 = 4.2711d+1
$ double precision, parameter :: f306 = 3.2769d-5
$ double precision, parameter :: f307 = 1.2072d-5
$ double precision, parameter :: f308 = 1.0575d-1
$ double precision, parameter :: f309 = 2.6115d-3
$ double precision, parameter :: f310 = 5.7776d-1
$ double precision, parameter :: f311 = 1.1770d-6
$ double precision, parameter :: f312 = 1.1291d-3
$ double precision, parameter :: f313 = 4.4896d-4
$ double precision, parameter :: f314 = 2.1916d-7
$ double precision, parameter :: f315 = 4.4420d-2

# Electron Collision Reaction
e + CH4 => e + CH4(v24)		! f0 * Bolsig+ CH4 -> CH4(v24)
e + CH4 => e + CH4(v13)		! f1 * Bolsig+ CH4 -> CH4(v13)
e + C2H6 => e + C2H6(v24)		! f2 * Bolsig+ C2H6 -> C2H6(v24)
e + C2H6 => e + C2H6(v13)		! f3 * Bolsig+ C2H6 -> C2H6(v13)
e + C2H4 => e + C2H4(v1)		! f4 * Bolsig+ C2H4 -> C2H4(v1)
e + C2H4 => e + C2H4(v2)		! f5 * Bolsig+ C2H4 -> C2H4(v2)
e + C2H2 => e + C2H2(v5)		! f6 * Bolsig+ C2H2 -> C2H2(v5)
e + C2H2 => e + C2H2(v2)		! f7 * Bolsig+ C2H2 -> C2H2(v2)
e + C2H2 => e + C2H2(v13)		! f8 * Bolsig+ C2H2 -> C2H2(v13)
e + C3H8 => e + C3H8(v1)		! f9 * Bolsig+ C3H8 -> C3H8(v1)
e + C3H8 => e + C3H8(v2)		! f10 * Bolsig+ C3H8 -> C3H8(v2)
e + C3H6 => e + C3H6(v)		! f11 * Bolsig+ C3H6 -> C3H6(v)
e + CH4 => e + CH3 + H		! f12 * Bolsig+ CH4 -> CH3 H
e + CH4(v24) => e + CH3 + H		! f12 * Bolsig+ CH4(v24) -> CH3 H
e + CH4(v13) => e + CH3 + H		! f12 * Bolsig+ CH4(v13) -> CH3 H
e + CH4 => e + CH2 + H2		! f13 * Bolsig+ CH4 -> CH2 H2
e + CH4(v24) => e + CH2 + H2		! f13 * Bolsig+ CH4(v24) -> CH2 H2
e + CH4(v13) => e + CH2 + H2		! f13 * Bolsig+ CH4(v13) -> CH2 H2
e + CH4 => e + CH + H2 + H		! f14 * Bolsig+ CH4 -> CH H2 H
e + CH4(v24) => e + CH + H2 + H		! f14 * Bolsig+ CH4(v24) -> CH H2 H
e + CH4(v13) => e + CH + H2 + H		! f14 * Bolsig+ CH4(v13) -> CH H2 H
e + CH4 => e + C + H2 + H2		! f15 * Bolsig+ CH4 -> C H2 H2
e + CH4(v24) => e + C + H2 + H2		! f15 * Bolsig+ CH4(v24) -> C H2 H2
e + CH4(v13) => e + C + H2 + H2		! f15 * Bolsig+ CH4(v13) -> C H2 H2
e + CH3 => e + CH2 + H		! f16 * Bolsig+ CH3 -> CH2 H
e + CH3 => e + CH + H2		! f17 * Bolsig+ CH3 -> CH H2
e + CH3 => e + C + H2 + H		! f18 * Bolsig+ CH3 -> C H2 H
e + CH2 => e + CH + H		! f19 * Bolsig+ CH2 -> CH H
e + CH2 => e + C + H2		! f20 * Bolsig+ CH2 -> C H2
e + CH2 => e + C + H + H		! f21 * Bolsig+ CH2 -> C H H
e + CH => e + C + H		! f22 * Bolsig+ CH -> C H
e + CH4 => e + e + CH4^+		! f23 * Bolsig+ CH4 -> CH4^+
e + CH4(v24) => e + e + CH4^+		! f23 * Bolsig+ CH4(v24) -> CH4^+
e + CH4(v13) => e + e + CH4^+		! f23 * Bolsig+ CH4(v13) -> CH4^+
e + CH4 => e + e + H + CH3^+		! f24 * Bolsig+ CH4 -> H CH3^+
e + CH4(v24) => e + e + H + CH3^+		! f24 * Bolsig+ CH4(v24) -> H CH3^+
e + CH4(v13) => e + e + H + CH3^+		! f24 * Bolsig+ CH4(v13) -> H CH3^+
e + CH4 => e + e + H2 + CH2^+		! f25 * Bolsig+ CH4 -> H2 CH2^+
e + CH4(v24) => e + e + H2 + CH2^+		! f25 * Bolsig+ CH4(v24) -> H2 CH2^+
e + CH4(v13) => e + e + H2 + CH2^+		! f25 * Bolsig+ CH4(v13) -> H2 CH2^+
e + CH4 => e + e + H2 + H + CH^+		! f26 * Bolsig+ CH4 -> H2 H CH^+
e + CH4(v24) => e + e + H2 + H + CH^+		! f26 * Bolsig+ CH4(v24) -> H2 H CH^+
e + CH4(v13) => e + e + H2 + H + CH^+		! f26 * Bolsig+ CH4(v13) -> H2 H CH^+
e + CH3 => e + e + CH3^+		! f27 * Bolsig+ CH3 -> CH3^+
e + CH3 => e + e + H + CH2^+		! f28 * Bolsig+ CH3 -> H CH2^+
e + CH3 => e + e + H2 + CH^+		! f29 * Bolsig+ CH3 -> H2 CH^+
e + CH2 => e + e + CH2^+		! f30 * Bolsig+ CH2 -> CH2^+
e + CH2 => e + e + H + CH^+		! f31 * Bolsig+ CH2 -> H CH^+
e + CH => e + e + CH^+		! f32 * Bolsig+ CH -> CH^+
e + C2H6 => e + C2H5 + H		! f33 * Bolsig+ C2H6 -> C2H5 H
e + C2H6(v24) => e + C2H5 + H		! f33 * Bolsig+ C2H6(v24) -> C2H5 H
e + C2H6(v13) => e + C2H5 + H		! f33 * Bolsig+ C2H6(v13) -> C2H5 H
e + C2H6 => e + C2H4 + H2		! f34 * Bolsig+ C2H6 -> C2H4 H2
e + C2H6(v24) => e + C2H4 + H2		! f34 * Bolsig+ C2H6(v24) -> C2H4 H2
e + C2H6(v13) => e + C2H4 + H2		! f34 * Bolsig+ C2H6(v13) -> C2H4 H2
e + C2H6 => e + C2H3 + H2 + H		! f35 * Bolsig+ C2H6 -> C2H3 H2 H
e + C2H6(v24) => e + C2H3 + H2 + H		! f35 * Bolsig+ C2H6(v24) -> C2H3 H2 H
e + C2H6(v13) => e + C2H3 + H2 + H		! f35 * Bolsig+ C2H6(v13) -> C2H3 H2 H
e + C2H6 => e + C2H2 + H2 + H2		! f36 * Bolsig+ C2H6 -> C2H2 H2 H2
e + C2H6(v24) => e + C2H2 + H2 + H2		! f36 * Bolsig+ C2H6(v24) -> C2H2 H2 H2
e + C2H6(v13) => e + C2H2 + H2 + H2		! f36 * Bolsig+ C2H6(v13) -> C2H2 H2 H2
e + C2H6 => e + CH4 + CH2		! f37 * Bolsig+ C2H6 -> CH4 CH2
e + C2H6(v24) => e + CH4 + CH2		! f37 * Bolsig+ C2H6(v24) -> CH4 CH2
e + C2H6(v13) => e + CH4 + CH2		! f37 * Bolsig+ C2H6(v13) -> CH4 CH2
e + C2H6 => e + CH3 + CH3		! f38 * Bolsig+ C2H6 -> CH3 CH3
e + C2H6(v24) => e + CH3 + CH3		! f38 * Bolsig+ C2H6(v24) -> CH3 CH3
e + C2H6(v13) => e + CH3 + CH3		! f38 * Bolsig+ C2H6(v13) -> CH3 CH3
e + C2H5 => e + C2H4 + H		! f39 * Bolsig+ C2H5 -> C2H4 H
e + C2H5 => e + C2H3 + H2		! f40 * Bolsig+ C2H5 -> C2H3 H2
e + C2H5 => e + C2H3 + H + H		! f41 * Bolsig+ C2H5 -> C2H3 H H
e + C2H5 => e + C2H2 + H2 + H		! f42 * Bolsig+ C2H5 -> C2H2 H2 H
e + C2H5 => e + CH4 + CH		! f43 * Bolsig+ C2H5 -> CH4 CH
e + C2H5 => e + CH3 + CH2		! f44 * Bolsig+ C2H5 -> CH3 CH2
e + C2H4 => e + C2H3 + H		! f45 * Bolsig+ C2H4 -> C2H3 H
e + C2H4(v1) => e + C2H3 + H		! f45 * Bolsig+ C2H4(v1) -> C2H3 H
e + C2H4(v2) => e + C2H3 + H		! f45 * Bolsig+ C2H4(v2) -> C2H3 H
e + C2H4 => e + C2H2 + H2		! f46 * Bolsig+ C2H4 -> C2H2 H2
e + C2H4(v1) => e + C2H2 + H2		! f46 * Bolsig+ C2H4(v1) -> C2H2 H2
e + C2H4(v2) => e + C2H2 + H2		! f46 * Bolsig+ C2H4(v2) -> C2H2 H2
e + C2H4 => e + C2H2 + H + H		! f47 * Bolsig+ C2H4 -> C2H2 H H
e + C2H4(v1) => e + C2H2 + H + H		! f47 * Bolsig+ C2H4(v1) -> C2H2 H H
e + C2H4(v2) => e + C2H2 + H + H		! f47 * Bolsig+ C2H4(v2) -> C2H2 H H
e + C2H4 => e + CH3 + CH		! f48 * Bolsig+ C2H4 -> CH3 CH
e + C2H4(v1) => e + CH3 + CH		! f48 * Bolsig+ C2H4(v1) -> CH3 CH
e + C2H4(v2) => e + CH3 + CH		! f48 * Bolsig+ C2H4(v2) -> CH3 CH
e + C2H4 => e + CH2 + CH2		! f49 * Bolsig+ C2H4 -> CH2 CH2
e + C2H4(v1) => e + CH2 + CH2		! f49 * Bolsig+ C2H4(v1) -> CH2 CH2
e + C2H4(v2) => e + CH2 + CH2		! f49 * Bolsig+ C2H4(v2) -> CH2 CH2
e + C2H3 => e + C2H2 + H		! f50 * Bolsig+ C2H3 -> C2H2 H
e + C2H3 => e + CH2 + CH		! f51 * Bolsig+ C2H3 -> CH2 CH
e + C2H2 => e + CH + CH		! f52 * Bolsig+ C2H2 -> CH CH
e + C2H2(v5) => e + CH + CH		! f52 * Bolsig+ C2H2(v5) -> CH CH
e + C2H2(v2) => e + CH + CH		! f52 * Bolsig+ C2H2(v2) -> CH CH
e + C2H2(v13) => e + CH + CH		! f52 * Bolsig+ C2H2(v13) -> CH CH
e + C2H6 => e + e + C2H6^+		! f53 * Bolsig+ C2H6 -> C2H6^+
e + C2H6(v24) => e + e + C2H6^+		! f53 * Bolsig+ C2H6(v24) -> C2H6^+
e + C2H6(v13) => e + e + C2H6^+		! f53 * Bolsig+ C2H6(v13) -> C2H6^+
e + C2H6 => e + e + H + C2H5^+		! f54 * Bolsig+ C2H6 -> H C2H5^+
e + C2H6(v24) => e + e + H + C2H5^+		! f54 * Bolsig+ C2H6(v24) -> H C2H5^+
e + C2H6(v13) => e + e + H + C2H5^+		! f54 * Bolsig+ C2H6(v13) -> H C2H5^+
e + C2H6 => e + e + H2 + C2H4^+		! f55 * Bolsig+ C2H6 -> H2 C2H4^+
e + C2H6(v24) => e + e + H2 + C2H4^+		! f55 * Bolsig+ C2H6(v24) -> H2 C2H4^+
e + C2H6(v13) => e + e + H2 + C2H4^+		! f55 * Bolsig+ C2H6(v13) -> H2 C2H4^+
e + C2H6 => e + e + H2 + H + C2H3^+		! f56 * Bolsig+ C2H6 -> H2 H C2H3^+
e + C2H6(v24) => e + e + H2 + H + C2H3^+		! f56 * Bolsig+ C2H6(v24) -> H2 H C2H3^+
e + C2H6(v13) => e + e + H2 + H + C2H3^+		! f56 * Bolsig+ C2H6(v13) -> H2 H C2H3^+
e + C2H6 => e + e + H2 + H2 + C2H2^+		! f57 * Bolsig+ C2H6 -> H2 H2 C2H2^+
e + C2H6(v24) => e + e + H2 + H2 + C2H2^+		! f57 * Bolsig+ C2H6(v24) -> H2 H2 C2H2^+
e + C2H6(v13) => e + e + H2 + H2 + C2H2^+		! f57 * Bolsig+ C2H6(v13) -> H2 H2 C2H2^+
e + C2H6 => e + e + CH3 + CH3^+		! f58 * Bolsig+ C2H6 -> CH3 CH3^+
e + C2H6(v24) => e + e + CH3 + CH3^+		! f58 * Bolsig+ C2H6(v24) -> CH3 CH3^+
e + C2H6(v13) => e + e + CH3 + CH3^+		! f58 * Bolsig+ C2H6(v13) -> CH3 CH3^+
e + C2H6 => e + e + CH4 + CH2^+		! f59 * Bolsig+ C2H6 -> CH4 CH2^+
e + C2H6(v24) => e + e + CH4 + CH2^+		! f59 * Bolsig+ C2H6(v24) -> CH4 CH2^+
e + C2H6(v13) => e + e + CH4 + CH2^+		! f59 * Bolsig+ C2H6(v13) -> CH4 CH2^+
e + C2H5 => e + e + C2H5^+		! f60 * Bolsig+ C2H5 -> C2H5^+
e + C2H5 => e + e + H + C2H4^+		! f61 * Bolsig+ C2H5 -> H C2H4^+
e + C2H5 => e + e + H2 + C2H3^+		! f62 * Bolsig+ C2H5 -> H2 C2H3^+
e + C2H5 => e + e + H2 + H + C2H2^+		! f63 * Bolsig+ C2H5 -> H2 H C2H2^+
e + C2H5 => e + e + CH2 + CH3^+		! f64 * Bolsig+ C2H5 -> CH2 CH3^+
e + C2H5 => e + e + CH3 + CH2^+		! f65 * Bolsig+ C2H5 -> CH3 CH2^+
e + C2H5 => e + e + CH4 + CH^+		! f66 * Bolsig+ C2H5 -> CH4 CH^+
e + C2H4 => e + e + C2H4^+		! f67 * Bolsig+ C2H4 -> C2H4^+
e + C2H4(v1) => e + e + C2H4^+		! f67 * Bolsig+ C2H4(v1) -> C2H4^+
e + C2H4(v2) => e + e + C2H4^+		! f67 * Bolsig+ C2H4(v2) -> C2H4^+
e + C2H4 => e + e + H + C2H3^+		! f68 * Bolsig+ C2H4 -> H C2H3^+
e + C2H4(v1) => e + e + H + C2H3^+		! f68 * Bolsig+ C2H4(v1) -> H C2H3^+
e + C2H4(v2) => e + e + H + C2H3^+		! f68 * Bolsig+ C2H4(v2) -> H C2H3^+
e + C2H4 => e + e + CH + CH3^+		! f69 * Bolsig+ C2H4 -> CH CH3^+
e + C2H4(v1) => e + e + CH + CH3^+		! f69 * Bolsig+ C2H4(v1) -> CH CH3^+
e + C2H4(v2) => e + e + CH + CH3^+		! f69 * Bolsig+ C2H4(v2) -> CH CH3^+
e + C2H4 => e + e + CH2 + CH2^+		! f70 * Bolsig+ C2H4 -> CH2 CH2^+
e + C2H4(v1) => e + e + CH2 + CH2^+		! f70 * Bolsig+ C2H4(v1) -> CH2 CH2^+
e + C2H4(v2) => e + e + CH2 + CH2^+		! f70 * Bolsig+ C2H4(v2) -> CH2 CH2^+
e + C2H4 => e + e + CH3 + CH^+		! f71 * Bolsig+ C2H4 -> CH3 CH^+
e + C2H4(v1) => e + e + CH3 + CH^+		! f71 * Bolsig+ C2H4(v1) -> CH3 CH^+
e + C2H4(v2) => e + e + CH3 + CH^+		! f71 * Bolsig+ C2H4(v2) -> CH3 CH^+
e + C2H3 => e + e + C2H3^+		! f72 * Bolsig+ C2H3 -> C2H3^+
e + C2H3 => e + e + H + C2H2^+		! f73 * Bolsig+ C2H3 -> H C2H2^+
e + C2H3 => e + e + CH + CH2^+		! f74 * Bolsig+ C2H3 -> CH CH2^+
e + C2H3 => e + e + CH2 + CH^+		! f75 * Bolsig+ C2H3 -> CH2 CH^+
e + C2H3 => e + e + C2H2 + H^+		! f76 * Bolsig+ C2H3 -> C2H2 H^+
e + C2H2 => e + e + C2H2^+		! f77 * Bolsig+ C2H2 -> C2H2^+
e + C2H2(v5) => e + e + C2H2^+		! f77 * Bolsig+ C2H2(v5) -> C2H2^+
e + C2H2(v2) => e + e + C2H2^+		! f77 * Bolsig+ C2H2(v2) -> C2H2^+
e + C2H2(v13) => e + e + C2H2^+		! f77 * Bolsig+ C2H2(v13) -> C2H2^+
e + C2H2 => e + e + CH + CH^+		! f78 * Bolsig+ C2H2 -> CH CH^+
e + C2H2(v5) => e + e + CH + CH^+		! f78 * Bolsig+ C2H2(v5) -> CH CH^+
e + C2H2(v2) => e + e + CH + CH^+		! f78 * Bolsig+ C2H2(v2) -> CH CH^+
e + C2H2(v13) => e + e + CH + CH^+		! f78 * Bolsig+ C2H2(v13) -> CH CH^+
e + C3H8 => e + C3H7 + H		! f79 * Bolsig+ C3H8 -> C3H7 H
e + C3H8(v1) => e + C3H7 + H		! f79 * Bolsig+ C3H8(v1) -> C3H7 H
e + C3H8(v2) => e + C3H7 + H		! f79 * Bolsig+ C3H8(v2) -> C3H7 H
e + C3H8 => e + C3H6 + H2		! f80 * Bolsig+ C3H8 -> C3H6 H2
e + C3H8(v1) => e + C3H6 + H2		! f80 * Bolsig+ C3H8(v1) -> C3H6 H2
e + C3H8(v2) => e + C3H6 + H2		! f80 * Bolsig+ C3H8(v2) -> C3H6 H2
e + C3H7 => e + C3H6 + H		! f81 * Bolsig+ C3H7 -> C3H6 H
e + C3H8 => e + e + C3H8^+		! f82 * Bolsig+ C3H8 -> C3H8^+
e + C3H8(v1) => e + e + C3H8^+		! f82 * Bolsig+ C3H8(v1) -> C3H8^+
e + C3H8(v2) => e + e + C3H8^+		! f82 * Bolsig+ C3H8(v2) -> C3H8^+
e + C3H8 => e + e + H + C3H7^+		! f83 * Bolsig+ C3H8 -> H C3H7^+
e + C3H8(v1) => e + e + H + C3H7^+		! f83 * Bolsig+ C3H8(v1) -> H C3H7^+
e + C3H8(v2) => e + e + H + C3H7^+		! f83 * Bolsig+ C3H8(v2) -> H C3H7^+
e + C3H8 => e + e + H2 + C3H6^+		! f84 * Bolsig+ C3H8 -> H2 C3H6^+
e + C3H8(v1) => e + e + H2 + C3H6^+		! f84 * Bolsig+ C3H8(v1) -> H2 C3H6^+
e + C3H8(v2) => e + e + H2 + C3H6^+		! f84 * Bolsig+ C3H8(v2) -> H2 C3H6^+
e + C3H7 => e + e + C3H7^+		! f85 * Bolsig+ C3H7 -> C3H7^+
e + C3H7 => e + e + H + C3H6^+		! f86 * Bolsig+ C3H7 -> H C3H6^+
e + C3H6 => e + e + C3H6^+		! f87 * Bolsig+ C3H6 -> C3H6^+
e + C3H6(v) => e + e + C3H6^+		! f87 * Bolsig+ C3H6(v) -> C3H6^+
e + C3H6 => e + C2H2 + CH4		! f88 * Bolsig+ C3H6 -> C2H2 CH4
e + C3H6(v) => e + C2H2 + CH4		! f88 * Bolsig+ C3H6(v) -> C2H2 CH4
e + C3H6 => e + e + C2H2 + CH4^+		! f89 * Bolsig+ C3H6 -> C2H2 CH4^+
e + C3H6(v) => e + e + C2H2 + CH4^+		! f89 * Bolsig+ C3H6(v) -> C2H2 CH4^+

# Ion Recombination Reaction
e + e + CH^+ => e + CH		! f90 * 1.00d0
e + e + CH2^+ => e + CH2		! f91 * 1.00d0
e + e + CH3^+ => e + CH3		! f92 * 1.00d0
e + e + CH4^+ => e + CH4		! f93 * 1.00d0
e + e + C2H2^+ => e + C2H2		! f94 * 1.00d0
e + e + C2H3^+ => e + C2H3		! f95 * 1.00d0
e + e + C2H4^+ => e + C2H4		! f96 * 1.00d0
e + e + C2H5^+ => e + C2H5		! f97 * 1.00d0
e + e + C2H6^+ => e + C2H6		! f98 * 1.00d0
e + e + C3H6^+ => e + C3H6		! f99 * 1.00d0
e + e + C3H7^+ => e + C3H7		! f100 * 1.00d0
e + e + C3H8^+ => e + C3H8		! f101 * 1.00d0

# Gas Phase Reaction
e + CH4^+ => CH3 + H		! f102 * 1.18d-08 * (300./Tgas)**0.5
e + CH4^+ => CH2 + H + H		! f103 * 2.42d-08 * (300./Tgas)**0.5
e + CH4^+ => CH + H2 + H		! f104 * 1.41d-08 * (300./Tgas)**0.5
e + CH3^+ => CH2 + H		! f105 * 2.25d-08 * (300./Tgas)**0.5
e + CH3^+ => CH + H2		! f106 * 7.88d-09 * (300./Tgas)**0.5
e + CH3^+ => CH + H + H		! f107 * 9.00d-09 * (300./Tgas)**0.5
e + CH3^+ => C + H2 + H		! f108 * 1.69d-08 * (300./Tgas)**0.5
e + CH2^+ => CH + H		! f109 * 1.00d-08 * (300./Tgas)**0.5
e + CH2^+ => C + H2		! f110 * 4.82d-09 * (300./Tgas)**0.5
e + CH2^+ => C + H + H		! f111 * 2.53d-08 * (300./Tgas)**0.5
e + CH^+ => C + H		! f112 * 3.23d-08 * (300./Tgas)**0.42
e + C2H6^+ => C2H5 + H		! f113 * 2.19d-08 * (300./Tgas)**0.71
e + C2H6^+ => C2H4 + H + H		! f114 * 3.36d-08 * (300./Tgas)**0.71
e + C2H5^+ => C2H4 + H		! f115 * 7.70d-09 * (300./Tgas)**0.71
e + C2H5^+ => C2H3 + H + H		! f116 * 1.92d-08 * (300./Tgas)**0.71
e + C2H5^+ => C2H2 + H2 + H		! f117 * 1.60d-08 * (300./Tgas)**0.71
e + C2H5^+ => C2H2 + H + H + H		! f118 * 8.98d-09 * (300./Tgas)**0.71
e + C2H5^+ => CH3 + CH2		! f119 * 9.62d-09 * (300./Tgas)**0.71
e + C2H4^+ => C2H3 + H		! f120 * 8.29d-09 * (300./Tgas)**0.71
e + C2H4^+ => C2H2 + H + H		! f121 * 3.43d-08 * (300./Tgas)**0.71
e + C2H3^+ => C2H2 + H		! f122 * 1.34d-08 * (300./Tgas)**0.71
e + C2H2^+ => CH + CH		! f123 * 4.87d-09 * (300./Tgas)**0.71
e + H2^+ => H + H		! f124 * 3.17d21/(6.022d23 * Te**4.5)
e + H3^+ => H + H2		! f125 * 3.17d21/(6.022d23 * Te**4.5)
H2 + H2^+ => H + H3^+		! f126 * 2.11d-09
C2H6 + CH4^+ => CH4 + H2 + C2H4^+		! f127 * 1.91d-9
C2H6(v24) + CH4^+ => CH4 + H2 + C2H4^+		! f127 * 1.91d-9
C2H6(v13) + CH4^+ => CH4 + H2 + C2H4^+		! f127 * 1.91d-9
C2H4 + CH4^+ => CH3 + C2H5^+		! f128 * 4.23d-10