ELEMENTS
e C H
END

SPECIES
e C CH CH^+ CH2 CH2^+ CH3 CH3^+ CH4 CH4(v13) CH4(v24) CH4^+ C2H2 C2H2(v13) C2H2(v2) C2H2(v5) C2H2^+ C2H3 C2H3^+ C2H4 C2H4(v1) C2H4(v2) C2H4^+ C2H5 C2H5^+
C2H6 C2H6(v13) C2H6(v24) C2H6^+ C3H5 C3H6 C3H6(v) C3H6^+ C3H7 C3H7^+ C3H8 C3H8(v1) C3H8(v2) C3H8^+ C4H9 C4H9H C2H C5H12 H H2 H2^+ H3^+ H^+
END

BOLSIG
CH CH2 CH3 CH4 CH4(v13) CH4(v24) C2H2 C2H2(v13) C2H2(v2) C2H2(v5) C2H3 C2H4 C2H4(v1) C2H4(v2) C2H5 C2H6 C2H6(v13) C2H6(v24) C3H6 C3H6(v) C3H7 C3H8 C3H8(v1) C3H8(v2)
END

REACTIONS
# Gas Constant
$ double precision, parameter :: R = 8.314d-3

# Compensation Parameters
$ double precision, parameter :: f0 = 2.9321d+1
$ double precision, parameter :: f1 = 1.6096d-3
$ double precision, parameter :: f2 = 9.6470d0
$ double precision, parameter :: f3 = 2.7499d-7
$ double precision, parameter :: f4 = 2.0756d-2
$ double precision, parameter :: f5 = 1.2162d0
$ double precision, parameter :: f6 = 2.9064d-8
$ double precision, parameter :: f7 = 1.0363d0
$ double precision, parameter :: f8 = 1.4272d-7
$ double precision, parameter :: f9 = 3.1171d-7
$ double precision, parameter :: f10 = 4.1957d-3
$ double precision, parameter :: f11 = 2.1693d-6
$ double precision, parameter :: f12 = 4.4515d-5
$ double precision, parameter :: f13 = 4.0687d-1
$ double precision, parameter :: f14 = 1.2094d-2
$ double precision, parameter :: f15 = 3.3977d+1
$ double precision, parameter :: f16 = 5.1542d-5
$ double precision, parameter :: f17 = 3.5193d-8
$ double precision, parameter :: f18 = 2.1247d-1
$ double precision, parameter :: f19 = 2.5974d-7
$ double precision, parameter :: f20 = 6.4171d-2
$ double precision, parameter :: f21 = 5.2495d-6
$ double precision, parameter :: f22 = 8.8897d-3
$ double precision, parameter :: f23 = 1.5455d-1
$ double precision, parameter :: f24 = 7.1043d-1
$ double precision, parameter :: f25 = 3.5170d-3
$ double precision, parameter :: f26 = 1.6390d-5
$ double precision, parameter :: f27 = 8.8333d-7
$ double precision, parameter :: f28 = 1.7651d+1
$ double precision, parameter :: f29 = 1.1482d-3
$ double precision, parameter :: f30 = 3.1427d+2
$ double precision, parameter :: f31 = 6.3096d+1
$ double precision, parameter :: f32 = 7.1496d-1
$ double precision, parameter :: f33 = 2.2419d0
$ double precision, parameter :: f34 = 1.4398d-4
$ double precision, parameter :: f35 = 2.4363d+1
$ double precision, parameter :: f36 = 1.1605d-5
$ double precision, parameter :: f37 = 3.3102d-7
$ double precision, parameter :: f38 = 1.0145d-7
$ double precision, parameter :: f39 = 1.9336d-4
$ double precision, parameter :: f40 = 5.9546d+2
$ double precision, parameter :: f41 = 1.1068d+2
$ double precision, parameter :: f42 = 1.5937d+1
$ double precision, parameter :: f43 = 3.9928d-5
$ double precision, parameter :: f44 = 1.1697d-2
$ double precision, parameter :: f45 = 5.1602d-2
$ double precision, parameter :: f46 = 1.3400d+1
$ double precision, parameter :: f47 = 1.4681d-1
$ double precision, parameter :: f48 = 2.1375d-4
$ double precision, parameter :: f49 = 4.5431d-6
$ double precision, parameter :: f50 = 7.9958d0
$ double precision, parameter :: f51 = 1.5217d-2
$ double precision, parameter :: f52 = 6.4550d-1
$ double precision, parameter :: f53 = 6.1392d+2
$ double precision, parameter :: f54 = 4.3353d+2
$ double precision, parameter :: f55 = 6.7065d+1
$ double precision, parameter :: f56 = 1.2052d-2
$ double precision, parameter :: f57 = 4.6468d-5
$ double precision, parameter :: f58 = 1.0278d-8
$ double precision, parameter :: f59 = 2.9400d-8
$ double precision, parameter :: f60 = 7.4066d+1
$ double precision, parameter :: f61 = 2.2420d+1
$ double precision, parameter :: f62 = 4.6218d0
$ double precision, parameter :: f63 = 6.2608d0
$ double precision, parameter :: f64 = 6.2111d-8
$ double precision, parameter :: f65 = 3.3995d-8
$ double precision, parameter :: f66 = 1.8075d-1
$ double precision, parameter :: f67 = 6.5657d-2
$ double precision, parameter :: f68 = 9.8002d+2
$ double precision, parameter :: f69 = 3.3609d-6
$ double precision, parameter :: f70 = 1.6543d-5
$ double precision, parameter :: f71 = 1.3397d-5
$ double precision, parameter :: f72 = 1.4088d-7
$ double precision, parameter :: f73 = 1.7380d-3
$ double precision, parameter :: f74 = 2.2701d-3
$ double precision, parameter :: f75 = 1.7989d-6
$ double precision, parameter :: f76 = 2.6164d-3
$ double precision, parameter :: f77 = 2.1463d-6
$ double precision, parameter :: f78 = 1.6931d+1
$ double precision, parameter :: f79 = 8.6098d-7
$ double precision, parameter :: f80 = 4.0198d+2
$ double precision, parameter :: f81 = 1.3521d-3
$ double precision, parameter :: f82 = 3.4176d-4
$ double precision, parameter :: f83 = 4.7756d-2
$ double precision, parameter :: f84 = 4.5940d+2
$ double precision, parameter :: f85 = 5.2223d0
$ double precision, parameter :: f86 = 9.7229d-1
$ double precision, parameter :: f87 = 5.5075d-5
$ double precision, parameter :: f88 = 7.0277d+1
$ double precision, parameter :: f89 = 8.0625d-3
$ double precision, parameter :: f90 = 4.1598d-8
$ double precision, parameter :: f91 = 9.9260d-5
$ double precision, parameter :: f92 = 4.6650d+1
$ double precision, parameter :: f93 = 1.0598d+2
$ double precision, parameter :: f94 = 5.0158d0
$ double precision, parameter :: f95 = 9.3345d-1
$ double precision, parameter :: f96 = 3.8969d-3
$ double precision, parameter :: f97 = 4.4411d-4
$ double precision, parameter :: f98 = 2.8591d-8
$ double precision, parameter :: f99 = 1.3084d-6
$ double precision, parameter :: f100 = 4.7104d-2
$ double precision, parameter :: f101 = 1.0584d+1
$ double precision, parameter :: f102 = 2.0526d-7
$ double precision, parameter :: f103 = 1.8872d+1
$ double precision, parameter :: f104 = 1.3537d-5
$ double precision, parameter :: f105 = 2.1943d+1
$ double precision, parameter :: f106 = 4.3375d-6
$ double precision, parameter :: f107 = 1.8944d-5
$ double precision, parameter :: f108 = 6.5191d-5
$ double precision, parameter :: f109 = 2.5435d-1
$ double precision, parameter :: f110 = 3.8207d-3
$ double precision, parameter :: f111 = 3.3176d-3
$ double precision, parameter :: f112 = 1.3612d-4
$ double precision, parameter :: f113 = 8.6958d-8
$ double precision, parameter :: f114 = 7.8937d-8
$ double precision, parameter :: f115 = 1.6036d-8
$ double precision, parameter :: f116 = 6.0338d+1
$ double precision, parameter :: f117 = 5.5630d-1
$ double precision, parameter :: f118 = 8.5003d-3
$ double precision, parameter :: f119 = 4.5508d-7
$ double precision, parameter :: f120 = 3.3415d0
$ double precision, parameter :: f121 = 8.3705d0
$ double precision, parameter :: f122 = 1.7482d0
$ double precision, parameter :: f123 = 7.9267d0
$ double precision, parameter :: f124 = 1.9337d-6
$ double precision, parameter :: f125 = 6.0708d-1
$ double precision, parameter :: f126 = 1.3775d-4
$ double precision, parameter :: f127 = 1.2090d-2
$ double precision, parameter :: f128 = 2.4494d-2
$ double precision, parameter :: f129 = 1.5342d-6
$ double precision, parameter :: f130 = 1.4548d-3
$ double precision, parameter :: f131 = 6.0954d-2
$ double precision, parameter :: f132 = 6.9861d-6
$ double precision, parameter :: f133 = 1.8938d-3
$ double precision, parameter :: f134 = 1.2042d-2
$ double precision, parameter :: f135 = 6.7883d-7
$ double precision, parameter :: f136 = 1.6470d-6
$ double precision, parameter :: f137 = 8.4172d-1
$ double precision, parameter :: f138 = 1.6395d+1
$ double precision, parameter :: f139 = 1.1468d-8
$ double precision, parameter :: f140 = 3.7198d0
$ double precision, parameter :: f141 = 2.9126d-5
$ double precision, parameter :: f142 = 2.8864d-1
$ double precision, parameter :: f143 = 1.7231d-6
$ double precision, parameter :: f144 = 3.9090d-5
$ double precision, parameter :: f145 = 4.1593d-2
$ double precision, parameter :: f146 = 3.7039d-3
$ double precision, parameter :: f147 = 1.0289d-7
$ double precision, parameter :: f148 = 2.8734d-2
$ double precision, parameter :: f149 = 4.6988d-3
$ double precision, parameter :: f150 = 1.3201d0
$ double precision, parameter :: f151 = 7.8581d-2
$ double precision, parameter :: f152 = 2.5059d-6
$ double precision, parameter :: f153 = 8.9130d+2
$ double precision, parameter :: f154 = 1.1509d-6
$ double precision, parameter :: f155 = 5.2096d+1
$ double precision, parameter :: f156 = 1.6583d-6
$ double precision, parameter :: f157 = 2.5595d-5
$ double precision, parameter :: f158 = 2.8901d-1
$ double precision, parameter :: f159 = 5.2505d+1
$ double precision, parameter :: f160 = 2.8282d0
$ double precision, parameter :: f161 = 7.2207d-5
$ double precision, parameter :: f162 = 9.0920d-2
$ double precision, parameter :: f163 = 7.1452d0
$ double precision, parameter :: f164 = 1.3133d-3
$ double precision, parameter :: f165 = 3.1661d-8
$ double precision, parameter :: f166 = 1.3387d-4
$ double precision, parameter :: f167 = 2.2567d+2
$ double precision, parameter :: f168 = 3.5680d+1
$ double precision, parameter :: f169 = 3.0597d0
$ double precision, parameter :: f170 = 1.1395d-1
$ double precision, parameter :: f171 = 1.5750d0
$ double precision, parameter :: f172 = 2.3240d-2
$ double precision, parameter :: f173 = 1.6210d0
$ double precision, parameter :: f174 = 3.8094d-5
$ double precision, parameter :: f175 = 1.1866d-5
$ double precision, parameter :: f176 = 1.5232d-6
$ double precision, parameter :: f177 = 5.6919d0
$ double precision, parameter :: f178 = 1.0877d+1
$ double precision, parameter :: f179 = 1.1917d-3
$ double precision, parameter :: f180 = 2.0384d-2
$ double precision, parameter :: f181 = 7.8033d0
$ double precision, parameter :: f182 = 3.1141d-3
$ double precision, parameter :: f183 = 1.1640d-1
$ double precision, parameter :: f184 = 1.5949d-8
$ double precision, parameter :: f185 = 4.0408d+2
$ double precision, parameter :: f186 = 6.2896d-6
$ double precision, parameter :: f187 = 4.5693d-4
$ double precision, parameter :: f188 = 3.3224d0
$ double precision, parameter :: f189 = 2.2866d-5
$ double precision, parameter :: f190 = 9.7884d0
$ double precision, parameter :: f191 = 2.4852d-2
$ double precision, parameter :: f192 = 4.2569d-3
$ double precision, parameter :: f193 = 2.7926d-1
$ double precision, parameter :: f194 = 8.6264d-3
$ double precision, parameter :: f195 = 1.7955d-5
$ double precision, parameter :: f196 = 3.1143d+2
$ double precision, parameter :: f197 = 1.3948d-5
$ double precision, parameter :: f198 = 8.3680d+1
$ double precision, parameter :: f199 = 1.1906d-6
$ double precision, parameter :: f200 = 1.8702d-1
$ double precision, parameter :: f201 = 1.8046d-6
$ double precision, parameter :: f202 = 1.9299d-2
$ double precision, parameter :: f203 = 3.9641d-7
$ double precision, parameter :: f204 = 7.6924d-7
$ double precision, parameter :: f205 = 3.3717d-3
$ double precision, parameter :: f206 = 7.1765d-7
$ double precision, parameter :: f207 = 1.2779d+1
$ double precision, parameter :: f208 = 4.0396d-2
$ double precision, parameter :: f209 = 2.3694d-7
$ double precision, parameter :: f210 = 7.8995d-5
$ double precision, parameter :: f211 = 2.3708d+2
$ double precision, parameter :: f212 = 5.7081d-6
$ double precision, parameter :: f213 = 2.7722d-6
$ double precision, parameter :: f214 = 6.2009d+1
$ double precision, parameter :: f215 = 1.9590d+1
$ double precision, parameter :: f216 = 1.3966d-2
$ double precision, parameter :: f217 = 3.0977d-7
$ double precision, parameter :: f218 = 9.5122d-7
$ double precision, parameter :: f219 = 4.0470d-3
$ double precision, parameter :: f220 = 2.4699d-8
$ double precision, parameter :: f221 = 5.6193d-4
$ double precision, parameter :: f222 = 4.5488d0
$ double precision, parameter :: f223 = 3.6959d+2
$ double precision, parameter :: f224 = 4.4393d-1
$ double precision, parameter :: f225 = 2.1993d+2
$ double precision, parameter :: f226 = 5.8315d0
$ double precision, parameter :: f227 = 1.8935d-2
$ double precision, parameter :: f228 = 5.1931d-6
$ double precision, parameter :: f229 = 1.4750d-5
$ double precision, parameter :: f230 = 1.5322d-4
$ double precision, parameter :: f231 = 3.4869d-7
$ double precision, parameter :: f232 = 1.5112d-2
$ double precision, parameter :: f233 = 3.4379d-2
$ double precision, parameter :: f234 = 1.6236d-5
$ double precision, parameter :: f235 = 2.7702d-7
$ double precision, parameter :: f236 = 2.2524d-3
$ double precision, parameter :: f237 = 9.6125d-8
$ double precision, parameter :: f238 = 4.0089d0
$ double precision, parameter :: f239 = 1.5321d+2
$ double precision, parameter :: f240 = 1.2482d+2
$ double precision, parameter :: f241 = 2.9889d-6
$ double precision, parameter :: f242 = 2.9985d-7
$ double precision, parameter :: f243 = 7.5657d+1
$ double precision, parameter :: f244 = 5.9611d0
$ double precision, parameter :: f245 = 4.3480d+2
$ double precision, parameter :: f246 = 1.6157d+1
$ double precision, parameter :: f247 = 3.1846d-6
$ double precision, parameter :: f248 = 1.7119d0
$ double precision, parameter :: f249 = 1.1053d-8
$ double precision, parameter :: f250 = 1.8055d-3
$ double precision, parameter :: f251 = 4.5362d-1
$ double precision, parameter :: f252 = 4.2781d-4
$ double precision, parameter :: f253 = 4.1757d+2
$ double precision, parameter :: f254 = 1.2539d-8
$ double precision, parameter :: f255 = 5.1475d-5
$ double precision, parameter :: f256 = 1.5363d-6
$ double precision, parameter :: f257 = 3.4201d-7
$ double precision, parameter :: f258 = 4.0005d-3
$ double precision, parameter :: f259 = 1.1483d-6
$ double precision, parameter :: f260 = 4.9404d-8
$ double precision, parameter :: f261 = 2.6343d-7
$ double precision, parameter :: f262 = 5.8324d-7
$ double precision, parameter :: f263 = 5.0577d-1
$ double precision, parameter :: f264 = 1.8574d+1
$ double precision, parameter :: f265 = 8.9392d-2
$ double precision, parameter :: f266 = 7.2146d-6
$ double precision, parameter :: f267 = 2.7514d-4
$ double precision, parameter :: f268 = 1.1449d-5
$ double precision, parameter :: f269 = 2.3943d+1
$ double precision, parameter :: f270 = 2.8723d-3
$ double precision, parameter :: f271 = 1.3901d-7
$ double precision, parameter :: f272 = 7.7622d-5
$ double precision, parameter :: f273 = 5.7733d-3
$ double precision, parameter :: f274 = 3.1959d+2
$ double precision, parameter :: f275 = 6.3122d-7
$ double precision, parameter :: f276 = 1.7842d+1
$ double precision, parameter :: f277 = 5.2645d-8
$ double precision, parameter :: f278 = 1.6428d+1
$ double precision, parameter :: f279 = 1.5079d0
$ double precision, parameter :: f280 = 1.0290d-1
$ double precision, parameter :: f281 = 7.1391d-1
$ double precision, parameter :: f282 = 1.2653d+2
$ double precision, parameter :: f283 = 1.8184d+1
$ double precision, parameter :: f284 = 6.0892d-4
$ double precision, parameter :: f285 = 6.9903d-6
$ double precision, parameter :: f286 = 1.3939d+2
$ double precision, parameter :: f287 = 4.9060d-3
$ double precision, parameter :: f288 = 4.7036d-8
$ double precision, parameter :: f289 = 5.1889d-7
$ double precision, parameter :: f290 = 3.1832d-2
$ double precision, parameter :: f291 = 3.4862d-3
$ double precision, parameter :: f292 = 1.4317d+1
$ double precision, parameter :: f293 = 5.8666d-1
$ double precision, parameter :: f294 = 5.0759d-2
$ double precision, parameter :: f295 = 9.6984d-6
$ double precision, parameter :: f296 = 1.7984d-4
$ double precision, parameter :: f297 = 2.2673d-2
$ double precision, parameter :: f298 = 1.8612d+2
$ double precision, parameter :: f299 = 2.2640d-1
$ double precision, parameter :: f300 = 3.3814d-3
$ double precision, parameter :: f301 = 5.8159d-4
$ double precision, parameter :: f302 = 1.5008d0
$ double precision, parameter :: f303 = 9.3109d+1
$ double precision, parameter :: f304 = 1.4943d-8
$ double precision, parameter :: f305 = 9.7622d0
$ double precision, parameter :: f306 = 2.0585d+1
$ double precision, parameter :: f307 = 6.8790d-5
$ double precision, parameter :: f308 = 1.6877d-6
$ double precision, parameter :: f309 = 6.3343d-4
$ double precision, parameter :: f310 = 3.5080d-4
$ double precision, parameter :: f311 = 4.0975d-1
$ double precision, parameter :: f312 = 1.1116d-1
$ double precision, parameter :: f313 = 3.5676d+1
$ double precision, parameter :: f314 = 7.4847d-8
$ double precision, parameter :: f315 = 1.2454d-2

# Electron Collision Reaction
e + CH4 => e + CH4(v24)		! f0 * Bolsig+ CH4 -> CH4(v24)
e + CH4 => e + CH4(v13)		! f1 * Bolsig+ CH4 -> CH4(v13)
e + C2H6 => e + C2H6(v24)		! f2 * Bolsig+ C2H6 -> C2H6(v24)
e + C2H6 => e + C2H6(v13)		! f3 * Bolsig+ C2H6 -> C2H6(v13)
e + C2H4 => e + C2H4(v1)		! f4 * Bolsig+ C2H4 -> C2H4(v1)
e + C2H4 => e + C2H4(v2)		! f5 * Bolsig+ C2H4 -> C2H4(v2)
e + C2H2 => e + C2H2(v5)		! f6 * Bolsig+ C2H2 -> C2H2(v5)
e + C2H2 => e + C2H2(v2)		! f7 * Bolsig+ C2H2 -> C2H2(v2)
e + C2H2 => e + C2H2(v13)		! f8 * Bolsig+ C2H2 -> C2H2(v13)
e + C3H8 => e + C3H8(v1)		! f9 * Bolsig+ C3H8 -> C3H8(v1)
e + C3H8 => e + C3H8(v2)		! f10 * Bolsig+ C3H8 -> C3H8(v2)
e + C3H6 => e + C3H6(v)		! f11 * Bolsig+ C3H6 -> C3H6(v)
e + CH4 => e + CH3 + H		! f12 * Bolsig+ CH4 -> CH3 H
e + CH4(v24) => e + CH3 + H		! f12 * Bolsig+ CH4(v24) -> CH3 H
e + CH4(v13) => e + CH3 + H		! f12 * Bolsig+ CH4(v13) -> CH3 H
e + CH4 => e + CH2 + H2		! f13 * Bolsig+ CH4 -> CH2 H2
e + CH4(v24) => e + CH2 + H2		! f13 * Bolsig+ CH4(v24) -> CH2 H2
e + CH4(v13) => e + CH2 + H2		! f13 * Bolsig+ CH4(v13) -> CH2 H2
e + CH4 => e + CH + H2 + H		! f14 * Bolsig+ CH4 -> CH H2 H
e + CH4(v24) => e + CH + H2 + H		! f14 * Bolsig+ CH4(v24) -> CH H2 H
e + CH4(v13) => e + CH + H2 + H		! f14 * Bolsig+ CH4(v13) -> CH H2 H
e + CH4 => e + C + H2 + H2		! f15 * Bolsig+ CH4 -> C H2 H2
e + CH4(v24) => e + C + H2 + H2		! f15 * Bolsig+ CH4(v24) -> C H2 H2
e + CH4(v13) => e + C + H2 + H2		! f15 * Bolsig+ CH4(v13) -> C H2 H2
e + CH3 => e + CH2 + H		! f16 * Bolsig+ CH3 -> CH2 H
e + CH3 => e + CH + H2		! f17 * Bolsig+ CH3 -> CH H2
e + CH3 => e + C + H2 + H		! f18 * Bolsig+ CH3 -> C H2 H
e + CH2 => e + CH + H		! f19 * Bolsig+ CH2 -> CH H
e + CH2 => e + C + H2		! f20 * Bolsig+ CH2 -> C H2
e + CH2 => e + C + H + H		! f21 * Bolsig+ CH2 -> C H H
e + CH => e + C + H		! f22 * Bolsig+ CH -> C H
e + CH4 => e + e + CH4^+		! f23 * Bolsig+ CH4 -> CH4^+
e + CH4(v24) => e + e + CH4^+		! f23 * Bolsig+ CH4(v24) -> CH4^+
e + CH4(v13) => e + e + CH4^+		! f23 * Bolsig+ CH4(v13) -> CH4^+
e + CH4 => e + e + H + CH3^+		! f24 * Bolsig+ CH4 -> H CH3^+
e + CH4(v24) => e + e + H + CH3^+		! f24 * Bolsig+ CH4(v24) -> H CH3^+
e + CH4(v13) => e + e + H + CH3^+		! f24 * Bolsig+ CH4(v13) -> H CH3^+
e + CH4 => e + e + H2 + CH2^+		! f25 * Bolsig+ CH4 -> H2 CH2^+
e + CH4(v24) => e + e + H2 + CH2^+		! f25 * Bolsig+ CH4(v24) -> H2 CH2^+
e + CH4(v13) => e + e + H2 + CH2^+		! f25 * Bolsig+ CH4(v13) -> H2 CH2^+
e + CH4 => e + e + H2 + H + CH^+		! f26 * Bolsig+ CH4 -> H2 H CH^+
e + CH4(v24) => e + e + H2 + H + CH^+		! f26 * Bolsig+ CH4(v24) -> H2 H CH^+
e + CH4(v13) => e + e + H2 + H + CH^+		! f26 * Bolsig+ CH4(v13) -> H2 H CH^+
e + CH3 => e + e + CH3^+		! f27 * Bolsig+ CH3 -> CH3^+
e + CH3 => e + e + H + CH2^+		! f28 * Bolsig+ CH3 -> H CH2^+
e + CH3 => e + e + H2 + CH^+		! f29 * Bolsig+ CH3 -> H2 CH^+
e + CH2 => e + e + CH2^+		! f30 * Bolsig+ CH2 -> CH2^+
e + CH2 => e + e + H + CH^+		! f31 * Bolsig+ CH2 -> H CH^+
e + CH => e + e + CH^+		! f32 * Bolsig+ CH -> CH^+
e + C2H6 => e + C2H5 + H		! f33 * Bolsig+ C2H6 -> C2H5 H
e + C2H6(v24) => e + C2H5 + H		! f33 * Bolsig+ C2H6(v24) -> C2H5 H
e + C2H6(v13) => e + C2H5 + H		! f33 * Bolsig+ C2H6(v13) -> C2H5 H
e + C2H6 => e + C2H4 + H2		! f34 * Bolsig+ C2H6 -> C2H4 H2
e + C2H6(v24) => e + C2H4 + H2		! f34 * Bolsig+ C2H6(v24) -> C2H4 H2
e + C2H6(v13) => e + C2H4 + H2		! f34 * Bolsig+ C2H6(v13) -> C2H4 H2
e + C2H6 => e + C2H3 + H2 + H		! f35 * Bolsig+ C2H6 -> C2H3 H2 H
e + C2H6(v24) => e + C2H3 + H2 + H		! f35 * Bolsig+ C2H6(v24) -> C2H3 H2 H
e + C2H6(v13) => e + C2H3 + H2 + H		! f35 * Bolsig+ C2H6(v13) -> C2H3 H2 H
e + C2H6 => e + C2H2 + H2 + H2		! f36 * Bolsig+ C2H6 -> C2H2 H2 H2
e + C2H6(v24) => e + C2H2 + H2 + H2		! f36 * Bolsig+ C2H6(v24) -> C2H2 H2 H2
e + C2H6(v13) => e + C2H2 + H2 + H2		! f36 * Bolsig+ C2H6(v13) -> C2H2 H2 H2
e + C2H6 => e + CH4 + CH2		! f37 * Bolsig+ C2H6 -> CH4 CH2
e + C2H6(v24) => e + CH4 + CH2		! f37 * Bolsig+ C2H6(v24) -> CH4 CH2
e + C2H6(v13) => e + CH4 + CH2		! f37 * Bolsig+ C2H6(v13) -> CH4 CH2
e + C2H6 => e + CH3 + CH3		! f38 * Bolsig+ C2H6 -> CH3 CH3
e + C2H6(v24) => e + CH3 + CH3		! f38 * Bolsig+ C2H6(v24) -> CH3 CH3
e + C2H6(v13) => e + CH3 + CH3		! f38 * Bolsig+ C2H6(v13) -> CH3 CH3
e + C2H5 => e + C2H4 + H		! f39 * Bolsig+ C2H5 -> C2H4 H
e + C2H5 => e + C2H3 + H2		! f40 * Bolsig+ C2H5 -> C2H3 H2
e + C2H5 => e + C2H3 + H + H		! f41 * Bolsig+ C2H5 -> C2H3 H H
e + C2H5 => e + C2H2 + H2 + H		! f42 * Bolsig+ C2H5 -> C2H2 H2 H
e + C2H5 => e + CH4 + CH		! f43 * Bolsig+ C2H5 -> CH4 CH
e + C2H5 => e + CH3 + CH2		! f44 * Bolsig+ C2H5 -> CH3 CH2
e + C2H4 => e + C2H3 + H		! f45 * Bolsig+ C2H4 -> C2H3 H
e + C2H4(v1) => e + C2H3 + H		! f45 * Bolsig+ C2H4(v1) -> C2H3 H
e + C2H4(v2) => e + C2H3 + H		! f45 * Bolsig+ C2H4(v2) -> C2H3 H
e + C2H4 => e + C2H2 + H2		! f46 * Bolsig+ C2H4 -> C2H2 H2
e + C2H4(v1) => e + C2H2 + H2		! f46 * Bolsig+ C2H4(v1) -> C2H2 H2
e + C2H4(v2) => e + C2H2 + H2		! f46 * Bolsig+ C2H4(v2) -> C2H2 H2
e + C2H4 => e + C2H2 + H + H		! f47 * Bolsig+ C2H4 -> C2H2 H H
e + C2H4(v1) => e + C2H2 + H + H		! f47 * Bolsig+ C2H4(v1) -> C2H2 H H
e + C2H4(v2) => e + C2H2 + H + H		! f47 * Bolsig+ C2H4(v2) -> C2H2 H H
e + C2H4 => e + CH3 + CH		! f48 * Bolsig+ C2H4 -> CH3 CH
e + C2H4(v1) => e + CH3 + CH		! f48 * Bolsig+ C2H4(v1) -> CH3 CH
e + C2H4(v2) => e + CH3 + CH		! f48 * Bolsig+ C2H4(v2) -> CH3 CH
e + C2H4 => e + CH2 + CH2		! f49 * Bolsig+ C2H4 -> CH2 CH2
e + C2H4(v1) => e + CH2 + CH2		! f49 * Bolsig+ C2H4(v1) -> CH2 CH2
e + C2H4(v2) => e + CH2 + CH2		! f49 * Bolsig+ C2H4(v2) -> CH2 CH2
e + C2H3 => e + C2H2 + H		! f50 * Bolsig+ C2H3 -> C2H2 H
e + C2H3 => e + CH2 + CH		! f51 * Bolsig+ C2H3 -> CH2 CH
e + C2H2 => e + CH + CH		! f52 * Bolsig+ C2H2 -> CH CH
e + C2H2(v5) => e + CH + CH		! f52 * Bolsig+ C2H2(v5) -> CH CH
e + C2H2(v2) => e + CH + CH		! f52 * Bolsig+ C2H2(v2) -> CH CH
e + C2H2(v13) => e + CH + CH		! f52 * Bolsig+ C2H2(v13) -> CH CH
e + C2H6 => e + e + C2H6^+		! f53 * Bolsig+ C2H6 -> C2H6^+
e + C2H6(v24) => e + e + C2H6^+		! f53 * Bolsig+ C2H6(v24) -> C2H6^+
e + C2H6(v13) => e + e + C2H6^+		! f53 * Bolsig+ C2H6(v13) -> C2H6^+
e + C2H6 => e + e + H + C2H5^+		! f54 * Bolsig+ C2H6 -> H C2H5^+
e + C2H6(v24) => e + e + H + C2H5^+		! f54 * Bolsig+ C2H6(v24) -> H C2H5^+
e + C2H6(v13) => e + e + H + C2H5^+		! f54 * Bolsig+ C2H6(v13) -> H C2H5^+
e + C2H6 => e + e + H2 + C2H4^+		! f55 * Bolsig+ C2H6 -> H2 C2H4^+
e + C2H6(v24) => e + e + H2 + C2H4^+		! f55 * Bolsig+ C2H6(v24) -> H2 C2H4^+
e + C2H6(v13) => e + e + H2 + C2H4^+		! f55 * Bolsig+ C2H6(v13) -> H2 C2H4^+
e + C2H6 => e + e + H2 + H + C2H3^+		! f56 * Bolsig+ C2H6 -> H2 H C2H3^+
e + C2H6(v24) => e + e + H2 + H + C2H3^+		! f56 * Bolsig+ C2H6(v24) -> H2 H C2H3^+
e + C2H6(v13) => e + e + H2 + H + C2H3^+		! f56 * Bolsig+ C2H6(v13) -> H2 H C2H3^+
e + C2H6 => e + e + H2 + H2 + C2H2^+		! f57 * Bolsig+ C2H6 -> H2 H2 C2H2^+
e + C2H6(v24) => e + e + H2 + H2 + C2H2^+		! f57 * Bolsig+ C2H6(v24) -> H2 H2 C2H2^+
e + C2H6(v13) => e + e + H2 + H2 + C2H2^+		! f57 * Bolsig+ C2H6(v13) -> H2 H2 C2H2^+
e + C2H6 => e + e + CH3 + CH3^+		! f58 * Bolsig+ C2H6 -> CH3 CH3^+
e + C2H6(v24) => e + e + CH3 + CH3^+		! f58 * Bolsig+ C2H6(v24) -> CH3 CH3^+
e + C2H6(v13) => e + e + CH3 + CH3^+		! f58 * Bolsig+ C2H6(v13) -> CH3 CH3^+
e + C2H6 => e + e + CH4 + CH2^+		! f59 * Bolsig+ C2H6 -> CH4 CH2^+
e + C2H6(v24) => e + e + CH4 + CH2^+		! f59 * Bolsig+ C2H6(v24) -> CH4 CH2^+
e + C2H6(v13) => e + e + CH4 + CH2^+		! f59 * Bolsig+ C2H6(v13) -> CH4 CH2^+
e + C2H5 => e + e + C2H5^+		! f60 * Bolsig+ C2H5 -> C2H5^+
e + C2H5 => e + e + H + C2H4^+		! f61 * Bolsig+ C2H5 -> H C2H4^+
e + C2H5 => e + e + H2 + C2H3^+		! f62 * Bolsig+ C2H5 -> H2 C2H3^+
e + C2H5 => e + e + H2 + H + C2H2^+		! f63 * Bolsig+ C2H5 -> H2 H C2H2^+
e + C2H5 => e + e + CH2 + CH3^+		! f64 * Bolsig+ C2H5 -> CH2 CH3^+
e + C2H5 => e + e + CH3 + CH2^+		! f65 * Bolsig+ C2H5 -> CH3 CH2^+
e + C2H5 => e + e + CH4 + CH^+		! f66 * Bolsig+ C2H5 -> CH4 CH^+
e + C2H4 => e + e + C2H4^+		! f67 * Bolsig+ C2H4 -> C2H4^+
e + C2H4(v1) => e + e + C2H4^+		! f67 * Bolsig+ C2H4(v1) -> C2H4^+
e + C2H4(v2) => e + e + C2H4^+		! f67 * Bolsig+ C2H4(v2) -> C2H4^+
e + C2H4 => e + e + H + C2H3^+		! f68 * Bolsig+ C2H4 -> H C2H3^+
e + C2H4(v1) => e + e + H + C2H3^+		! f68 * Bolsig+ C2H4(v1) -> H C2H3^+
e + C2H4(v2) => e + e + H + C2H3^+		! f68 * Bolsig+ C2H4(v2) -> H C2H3^+
e + C2H4 => e + e + CH + CH3^+		! f69 * Bolsig+ C2H4 -> CH CH3^+
e + C2H4(v1) => e + e + CH + CH3^+		! f69 * Bolsig+ C2H4(v1) -> CH CH3^+
e + C2H4(v2) => e + e + CH + CH3^+		! f69 * Bolsig+ C2H4(v2) -> CH CH3^+
e + C2H4 => e + e + CH2 + CH2^+		! f70 * Bolsig+ C2H4 -> CH2 CH2^+
e + C2H4(v1) => e + e + CH2 + CH2^+		! f70 * Bolsig+ C2H4(v1) -> CH2 CH2^+
e + C2H4(v2) => e + e + CH2 + CH2^+		! f70 * Bolsig+ C2H4(v2) -> CH2 CH2^+
e + C2H4 => e + e + CH3 + CH^+		! f71 * Bolsig+ C2H4 -> CH3 CH^+
e + C2H4(v1) => e + e + CH3 + CH^+		! f71 * Bolsig+ C2H4(v1) -> CH3 CH^+
e + C2H4(v2) => e + e + CH3 + CH^+		! f71 * Bolsig+ C2H4(v2) -> CH3 CH^+
e + C2H3 => e + e + C2H3^+		! f72 * Bolsig+ C2H3 -> C2H3^+
e + C2H3 => e + e + H + C2H2^+		! f73 * Bolsig+ C2H3 -> H C2H2^+
e + C2H3 => e + e + CH + CH2^+		! f74 * Bolsig+ C2H3 -> CH CH2^+
e + C2H3 => e + e + CH2 + CH^+		! f75 * Bolsig+ C2H3 -> CH2 CH^+
e + C2H3 => e + e + C2H2 + H^+		! f76 * Bolsig+ C2H3 -> C2H2 H^+
e + C2H2 => e + e + C2H2^+		! f77 * Bolsig+ C2H2 -> C2H2^+
e + C2H2(v5) => e + e + C2H2^+		! f77 * Bolsig+ C2H2(v5) -> C2H2^+
e + C2H2(v2) => e + e + C2H2^+		! f77 * Bolsig+ C2H2(v2) -> C2H2^+
e + C2H2(v13) => e + e + C2H2^+		! f77 * Bolsig+ C2H2(v13) -> C2H2^+
e + C2H2 => e + e + CH + CH^+		! f78 * Bolsig+ C2H2 -> CH CH^+
e + C2H2(v5) => e + e + CH + CH^+		! f78 * Bolsig+ C2H2(v5) -> CH CH^+
e + C2H2(v2) => e + e + CH + CH^+		! f78 * Bolsig+ C2H2(v2) -> CH CH^+
e + C2H2(v13) => e + e + CH + CH^+		! f78 * Bolsig+ C2H2(v13) -> CH CH^+
e + C3H8 => e + C3H7 + H		! f79 * Bolsig+ C3H8 -> C3H7 H
e + C3H8(v1) => e + C3H7 + H		! f79 * Bolsig+ C3H8(v1) -> C3H7 H
e + C3H8(v2) => e + C3H7 + H		! f79 * Bolsig+ C3H8(v2) -> C3H7 H
e + C3H8 => e + C3H6 + H2		! f80 * Bolsig+ C3H8 -> C3H6 H2
e + C3H8(v1) => e + C3H6 + H2		! f80 * Bolsig+ C3H8(v1) -> C3H6 H2
e + C3H8(v2) => e + C3H6 + H2		! f80 * Bolsig+ C3H8(v2) -> C3H6 H2
e + C3H7 => e + C3H6 + H		! f81 * Bolsig+ C3H7 -> C3H6 H
e + C3H8 => e + e + C3H8^+		! f82 * Bolsig+ C3H8 -> C3H8^+
e + C3H8(v1) => e + e + C3H8^+		! f82 * Bolsig+ C3H8(v1) -> C3H8^+
e + C3H8(v2) => e + e + C3H8^+		! f82 * Bolsig+ C3H8(v2) -> C3H8^+
e + C3H8 => e + e + H + C3H7^+		! f83 * Bolsig+ C3H8 -> H C3H7^+
e + C3H8(v1) => e + e + H + C3H7^+		! f83 * Bolsig+ C3H8(v1) -> H C3H7^+
e + C3H8(v2) => e + e + H + C3H7^+		! f83 * Bolsig+ C3H8(v2) -> H C3H7^+
e + C3H8 => e + e + H2 + C3H6^+		! f84 * Bolsig+ C3H8 -> H2 C3H6^+
e + C3H8(v1) => e + e + H2 + C3H6^+		! f84 * Bolsig+ C3H8(v1) -> H2 C3H6^+
e + C3H8(v2) => e + e + H2 + C3H6^+		! f84 * Bolsig+ C3H8(v2) -> H2 C3H6^+
e + C3H7 => e + e + C3H7^+		! f85 * Bolsig+ C3H7 -> C3H7^+
e + C3H7 => e + e + H + C3H6^+		! f86 * Bolsig+ C3H7 -> H C3H6^+
e + C3H6 => e + e + C3H6^+		! f87 * Bolsig+ C3H6 -> C3H6^+
e + C3H6(v) => e + e + C3H6^+		! f87 * Bolsig+ C3H6(v) -> C3H6^+
e + C3H6 => e + C2H2 + CH4		! f88 * Bolsig+ C3H6 -> C2H2 CH4
e + C3H6(v) => e + C2H2 + CH4		! f88 * Bolsig+ C3H6(v) -> C2H2 CH4
e + C3H6 => e + e + C2H2 + CH4^+		! f89 * Bolsig+ C3H6 -> C2H2 CH4^+
e + C3H6(v) => e + e + C2H2 + CH4^+		! f89 * Bolsig+ C3H6(v) -> C2H2 CH4^+

# Ion Recombination Reaction
e + e + CH^+ => e + CH		! f90 * 1.00d0
e + e + CH2^+ => e + CH2		! f91 * 1.00d0
e + e + CH3^+ => e + CH3		! f92 * 1.00d0
e + e + CH4^+ => e + CH4		! f93 * 1.00d0
e + e + C2H2^+ => e + C2H2		! f94 * 1.00d0
e + e + C2H3^+ => e + C2H3		! f95 * 1.00d0
e + e + C2H4^+ => e + C2H4		! f96 * 1.00d0
e + e + C2H5^+ => e + C2H5		! f97 * 1.00d0
e + e + C2H6^+ => e + C2H6		! f98 * 1.00d0
e + e + C3H6^+ => e + C3H6		! f99 * 1.00d0
e + e + C3H7^+ => e + C3H7		! f100 * 1.00d0
e + e + C3H8^+ => e + C3H8		! f101 * 1.00d0

# Gas Phase Reaction
e + CH4^+ => CH3 + H		! f102 * 1.18d-08 * (300./Tgas)**0.5
e + CH4^+ => CH2 + H + H		! f103 * 2.42d-08 * (300./Tgas)**0.5
e + CH4^+ => CH + H2 + H		! f104 * 1.41d-08 * (300./Tgas)**0.5
e + CH3^+ => CH2 + H		! f105 * 2.25d-08 * (300./Tgas)**0.5
e + CH3^+ => CH + H2		! f106 * 7.88d-09 * (300./Tgas)**0.5
e + CH3^+ => CH + H + H		! f107 * 9.00d-09 * (300./Tgas)**0.5
e + CH3^+ => C + H2 + H		! f108 * 1.69d-08 * (300./Tgas)**0.5
e + CH2^+ => CH + H		! f109 * 1.00d-08 * (300./Tgas)**0.5
e + CH2^+ => C + H2		! f110 * 4.82d-09 * (300./Tgas)**0.5
e + CH2^+ => C + H + H		! f111 * 2.53d-08 * (300./Tgas)**0.5
e + CH^+ => C + H		! f112 * 3.23d-08 * (300./Tgas)**0.42
e + C2H6^+ => C2H5 + H		! f113 * 2.19d-08 * (300./Tgas)**0.71
e + C2H6^+ => C2H4 + H + H		! f114 * 3.36d-08 * (300./Tgas)**0.71
e + C2H5^+ => C2H4 + H		! f115 * 7.70d-09 * (300./Tgas)**0.71
e + C2H5^+ => C2H3 + H + H		! f116 * 1.92d-08 * (300./Tgas)**0.71
e + C2H5^+ => C2H2 + H2 + H		! f117 * 1.60d-08 * (300./Tgas)**0.71
e + C2H5^+ => C2H2 + H + H + H		! f118 * 8.98d-09 * (300./Tgas)**0.71
e + C2H5^+ => CH3 + CH2		! f119 * 9.62d-09 * (300./Tgas)**0.71
e + C2H4^+ => C2H3 + H		! f120 * 8.29d-09 * (300./Tgas)**0.71
e + C2H4^+ => C2H2 + H + H		! f121 * 3.43d-08 * (300./Tgas)**0.71
e + C2H3^+ => C2H2 + H		! f122 * 1.34d-08 * (300./Tgas)**0.71
e + C2H2^+ => CH + CH		! f123 * 4.87d-09 * (300./Tgas)**0.71
e + H2^+ => H + H		! f124 * 3.17d21/(6.022d23 * Te**4.5)
e + H3^+ => H + H2		! f125 * 3.17d21/(6.022d23 * Te**4.5)
H2 + H2^+ => H + H3^+		! f126 * 2.11d-09
C2H6 + CH4^+ => CH4 + H2 + C2H4^+		! f127 * 1.91d-9
C2H6(v24) + CH4^+ => CH4 + H2 + C2H4^+		! f127 * 1.91d-9
C2H6(v13) + CH4^+ => CH4 + H2 + C2H4^+		! f127 * 1.91d-9
C2H4 + CH4^+ => CH3 + C2H5^+		! f128 * 4.23d-10