ELEMENTS
e C H
END

SPECIES
e C CH CH^+ CH2 CH2^+ CH3 CH3^+ CH4 CH4(v13) CH4(v24) CH4^+ C2H2 C2H2(v13) C2H2(v2) C2H2(v5) C2H2^+ C2H3 C2H3^+ C2H4 C2H4(v1) C2H4(v2) C2H4^+ C2H5 C2H5^+
C2H6 C2H6(v13) C2H6(v24) C2H6^+ C3H5 C3H6 C3H6(v) C3H6^+ C3H7 C3H7^+ C3H8 C3H8(v1) C3H8(v2) C3H8^+ C4H9 C4H9H C2H C5H12 H H2 H2^+ H3^+ H^+
END

BOLSIG
CH CH2 CH3 CH4 CH4(v13) CH4(v24) C2H2 C2H2(v13) C2H2(v2) C2H2(v5) C2H3 C2H4 C2H4(v1) C2H4(v2) C2H5 C2H6 C2H6(v13) C2H6(v24) C3H6 C3H6(v) C3H7 C3H8 C3H8(v1) C3H8(v2)
END

REACTIONS
# Gas Constant
$ double precision, parameter :: R = 8.314d-3

# Compensation Parameters
$ double precision, parameter :: f0 = 5.5590d-6
$ double precision, parameter :: f1 = 2.2183d-2
$ double precision, parameter :: f2 = 3.2259d-7
$ double precision, parameter :: f3 = 1.5755d-6
$ double precision, parameter :: f4 = 4.4144d-7
$ double precision, parameter :: f5 = 1.1405d-1
$ double precision, parameter :: f6 = 5.1163d0
$ double precision, parameter :: f7 = 1.0058d0
$ double precision, parameter :: f8 = 2.7408d-7
$ double precision, parameter :: f9 = 8.7468d+1
$ double precision, parameter :: f10 = 2.8599d-7
$ double precision, parameter :: f11 = 1.0369d+2
$ double precision, parameter :: f12 = 1.8377d-5
$ double precision, parameter :: f13 = 5.8103d-8
$ double precision, parameter :: f14 = 1.1070d+1
$ double precision, parameter :: f15 = 6.1710d+1
$ double precision, parameter :: f16 = 1.9888d-8
$ double precision, parameter :: f17 = 2.4348d0
$ double precision, parameter :: f18 = 1.1334d+2
$ double precision, parameter :: f19 = 3.5421d-2
$ double precision, parameter :: f20 = 2.7420d+1
$ double precision, parameter :: f21 = 5.9348d-3
$ double precision, parameter :: f22 = 1.0873d-2
$ double precision, parameter :: f23 = 3.0706d-3
$ double precision, parameter :: f24 = 9.7871d-4
$ double precision, parameter :: f25 = 1.1131d-5
$ double precision, parameter :: f26 = 7.8870d0
$ double precision, parameter :: f27 = 2.1724d+1
$ double precision, parameter :: f28 = 4.3869d-8
$ double precision, parameter :: f29 = 1.2682d+2
$ double precision, parameter :: f30 = 3.1408d-5
$ double precision, parameter :: f31 = 9.2005d+2
$ double precision, parameter :: f32 = 2.8266d0
$ double precision, parameter :: f33 = 4.1067d+1
$ double precision, parameter :: f34 = 2.1173d0
$ double precision, parameter :: f35 = 4.3508d-7
$ double precision, parameter :: f36 = 5.3316d-8
$ double precision, parameter :: f37 = 1.4276d-5
$ double precision, parameter :: f38 = 5.6020d-1
$ double precision, parameter :: f39 = 2.1041d+2
$ double precision, parameter :: f40 = 1.0357d-7
$ double precision, parameter :: f41 = 9.3582d-8
$ double precision, parameter :: f42 = 1.4171d-8
$ double precision, parameter :: f43 = 7.6316d-6
$ double precision, parameter :: f44 = 1.8843d+1
$ double precision, parameter :: f45 = 1.0826d-7
$ double precision, parameter :: f46 = 3.3074d-3
$ double precision, parameter :: f47 = 6.0365d-4
$ double precision, parameter :: f48 = 1.4534d-1
$ double precision, parameter :: f49 = 3.2472d-6
$ double precision, parameter :: f50 = 2.9771d-4
$ double precision, parameter :: f51 = 2.0479d-3
$ double precision, parameter :: f52 = 2.0260d-4
$ double precision, parameter :: f53 = 5.8418d-1
$ double precision, parameter :: f54 = 9.5517d-1
$ double precision, parameter :: f55 = 2.0504d-4
$ double precision, parameter :: f56 = 3.6736d-2
$ double precision, parameter :: f57 = 1.7814d-8
$ double precision, parameter :: f58 = 6.3701d-4
$ double precision, parameter :: f59 = 1.3484d-8
$ double precision, parameter :: f60 = 4.4789d-7
$ double precision, parameter :: f61 = 3.4089d-2
$ double precision, parameter :: f62 = 5.9002d-4
$ double precision, parameter :: f63 = 1.9097d-7
$ double precision, parameter :: f64 = 1.2426d-5
$ double precision, parameter :: f65 = 1.4947d-1
$ double precision, parameter :: f66 = 8.7448d+1
$ double precision, parameter :: f67 = 1.7011d-3
$ double precision, parameter :: f68 = 6.3164d-5
$ double precision, parameter :: f69 = 2.0325d-2
$ double precision, parameter :: f70 = 1.2984d-6
$ double precision, parameter :: f71 = 1.6197d-7
$ double precision, parameter :: f72 = 2.0984d-7
$ double precision, parameter :: f73 = 6.6131d-6
$ double precision, parameter :: f74 = 7.0100d-7
$ double precision, parameter :: f75 = 5.8060d+2
$ double precision, parameter :: f76 = 6.9900d-5
$ double precision, parameter :: f77 = 3.9454d+1
$ double precision, parameter :: f78 = 1.0911d+1
$ double precision, parameter :: f79 = 1.6293d+2
$ double precision, parameter :: f80 = 3.8075d-8
$ double precision, parameter :: f81 = 8.8789d0
$ double precision, parameter :: f82 = 6.8343d-3
$ double precision, parameter :: f83 = 1.4879d-6
$ double precision, parameter :: f84 = 2.0398d-2
$ double precision, parameter :: f85 = 4.5539d0
$ double precision, parameter :: f86 = 5.4453d-5
$ double precision, parameter :: f87 = 4.9626d-6
$ double precision, parameter :: f88 = 5.3448d-4
$ double precision, parameter :: f89 = 5.7431d-7
$ double precision, parameter :: f90 = 1.8707d-5
$ double precision, parameter :: f91 = 1.5234d0
$ double precision, parameter :: f92 = 1.0389d-4
$ double precision, parameter :: f93 = 2.3668d-5
$ double precision, parameter :: f94 = 1.0863d-4
$ double precision, parameter :: f95 = 2.6912d-1
$ double precision, parameter :: f96 = 2.3097d-1
$ double precision, parameter :: f97 = 1.0527d+1
$ double precision, parameter :: f98 = 3.8801d-8
$ double precision, parameter :: f99 = 1.9471d+2
$ double precision, parameter :: f100 = 1.7732d+1
$ double precision, parameter :: f101 = 2.0936d-6
$ double precision, parameter :: f102 = 4.1220d+2
$ double precision, parameter :: f103 = 1.3822d-4
$ double precision, parameter :: f104 = 1.6943d-7
$ double precision, parameter :: f105 = 3.0364d-8
$ double precision, parameter :: f106 = 3.6786d-2
$ double precision, parameter :: f107 = 3.7508d-8
$ double precision, parameter :: f108 = 9.4243d-2
$ double precision, parameter :: f109 = 2.5349d-8
$ double precision, parameter :: f110 = 3.9301d-1
$ double precision, parameter :: f111 = 3.0572d-4
$ double precision, parameter :: f112 = 3.8528d-2
$ double precision, parameter :: f113 = 2.4075d-7
$ double precision, parameter :: f114 = 7.1531d-5
$ double precision, parameter :: f115 = 7.3308d+1
$ double precision, parameter :: f116 = 8.7543d0
$ double precision, parameter :: f117 = 2.6515d-3
$ double precision, parameter :: f118 = 4.0091d+2
$ double precision, parameter :: f119 = 6.8772d-8
$ double precision, parameter :: f120 = 2.3396d-2
$ double precision, parameter :: f121 = 1.2436d-1
$ double precision, parameter :: f122 = 2.0573d-3
$ double precision, parameter :: f123 = 2.3251d-5
$ double precision, parameter :: f124 = 2.6080d-1
$ double precision, parameter :: f125 = 1.3286d-4
$ double precision, parameter :: f126 = 1.2295d0
$ double precision, parameter :: f127 = 2.1254d-8
$ double precision, parameter :: f128 = 9.2923d-5
$ double precision, parameter :: f129 = 2.3179d0
$ double precision, parameter :: f130 = 1.8137d-1
$ double precision, parameter :: f131 = 5.1148d+2
$ double precision, parameter :: f132 = 1.4568d-7
$ double precision, parameter :: f133 = 1.2953d-8
$ double precision, parameter :: f134 = 2.1602d-8
$ double precision, parameter :: f135 = 1.2061d-7
$ double precision, parameter :: f136 = 2.3048d-7
$ double precision, parameter :: f137 = 1.1691d-8
$ double precision, parameter :: f138 = 4.2290d-5
$ double precision, parameter :: f139 = 5.1658d-5
$ double precision, parameter :: f140 = 4.3133d-1
$ double precision, parameter :: f141 = 4.4850d-4
$ double precision, parameter :: f142 = 2.0615d-2
$ double precision, parameter :: f143 = 1.1879d-2
$ double precision, parameter :: f144 = 7.8395d-2
$ double precision, parameter :: f145 = 2.6521d-7
$ double precision, parameter :: f146 = 9.7727d-7
$ double precision, parameter :: f147 = 9.3300d-8
$ double precision, parameter :: f148 = 1.2105d-6
$ double precision, parameter :: f149 = 3.1948d-1
$ double precision, parameter :: f150 = 2.1201d-8
$ double precision, parameter :: f151 = 5.5705d-1
$ double precision, parameter :: f152 = 1.2141d-5
$ double precision, parameter :: f153 = 1.0259d-3
$ double precision, parameter :: f154 = 6.9626d+2
$ double precision, parameter :: f155 = 4.5681d+1
$ double precision, parameter :: f156 = 2.1983d0
$ double precision, parameter :: f157 = 2.6500d-1
$ double precision, parameter :: f158 = 1.7789d-1
$ double precision, parameter :: f159 = 1.0989d-7
$ double precision, parameter :: f160 = 1.5931d+2
$ double precision, parameter :: f161 = 1.3925d-3
$ double precision, parameter :: f162 = 2.2657d-7
$ double precision, parameter :: f163 = 6.9575d-8
$ double precision, parameter :: f164 = 7.4693d-6
$ double precision, parameter :: f165 = 2.8755d-4
$ double precision, parameter :: f166 = 6.5070d-5
$ double precision, parameter :: f167 = 3.1400d-5
$ double precision, parameter :: f168 = 2.7365d+1
$ double precision, parameter :: f169 = 2.3922d0
$ double precision, parameter :: f170 = 2.3142d-5
$ double precision, parameter :: f171 = 2.9637d-3
$ double precision, parameter :: f172 = 2.6379d0
$ double precision, parameter :: f173 = 1.4494d-2
$ double precision, parameter :: f174 = 2.1226d-1
$ double precision, parameter :: f175 = 1.6494d-1
$ double precision, parameter :: f176 = 2.2089d-3
$ double precision, parameter :: f177 = 1.0331d+2
$ double precision, parameter :: f178 = 4.0716d-5
$ double precision, parameter :: f179 = 2.8521d-4
$ double precision, parameter :: f180 = 2.6944d-1
$ double precision, parameter :: f181 = 1.1757d-2
$ double precision, parameter :: f182 = 3.9671d-2
$ double precision, parameter :: f183 = 7.0008d-6
$ double precision, parameter :: f184 = 2.0497d-3
$ double precision, parameter :: f185 = 5.0268d-3
$ double precision, parameter :: f186 = 2.2637d+2
$ double precision, parameter :: f187 = 2.5565d-7
$ double precision, parameter :: f188 = 1.4409d-7
$ double precision, parameter :: f189 = 2.9311d-6
$ double precision, parameter :: f190 = 2.8156d-5
$ double precision, parameter :: f191 = 4.6122d-2
$ double precision, parameter :: f192 = 2.3915d-2
$ double precision, parameter :: f193 = 7.1680d-7
$ double precision, parameter :: f194 = 3.1707d-2
$ double precision, parameter :: f195 = 3.9096d-2
$ double precision, parameter :: f196 = 2.1636d-2
$ double precision, parameter :: f197 = 1.8324d-6
$ double precision, parameter :: f198 = 1.3301d-5
$ double precision, parameter :: f199 = 7.9293d-8
$ double precision, parameter :: f200 = 1.4177d-1
$ double precision, parameter :: f201 = 1.2316d-2
$ double precision, parameter :: f202 = 3.5476d-5
$ double precision, parameter :: f203 = 2.6092d+1
$ double precision, parameter :: f204 = 1.7486d-1
$ double precision, parameter :: f205 = 4.9549d-1
$ double precision, parameter :: f206 = 8.7749d-3
$ double precision, parameter :: f207 = 1.4212d+1
$ double precision, parameter :: f208 = 1.8516d-2
$ double precision, parameter :: f209 = 1.5758d-2
$ double precision, parameter :: f210 = 3.6392d-5
$ double precision, parameter :: f211 = 1.1307d-5
$ double precision, parameter :: f212 = 1.1634d-7
$ double precision, parameter :: f213 = 2.1960d-2
$ double precision, parameter :: f214 = 2.1489d0
$ double precision, parameter :: f215 = 3.3751d-2
$ double precision, parameter :: f216 = 1.7192d+1
$ double precision, parameter :: f217 = 8.8210d-4
$ double precision, parameter :: f218 = 3.1404d0
$ double precision, parameter :: f219 = 4.2929d-2
$ double precision, parameter :: f220 = 2.3256d-1
$ double precision, parameter :: f221 = 4.0853d-5
$ double precision, parameter :: f222 = 1.1880d-7
$ double precision, parameter :: f223 = 7.3954d-8
$ double precision, parameter :: f224 = 6.3668d-6
$ double precision, parameter :: f225 = 4.6000d-7
$ double precision, parameter :: f226 = 1.7654d+2
$ double precision, parameter :: f227 = 2.2548d-1
$ double precision, parameter :: f228 = 1.5284d-5
$ double precision, parameter :: f229 = 1.2599d-4
$ double precision, parameter :: f230 = 1.3226d-2
$ double precision, parameter :: f231 = 5.9849d-4
$ double precision, parameter :: f232 = 7.0171d-5
$ double precision, parameter :: f233 = 4.0764d-1
$ double precision, parameter :: f234 = 8.4826d-4
$ double precision, parameter :: f235 = 7.7338d-6
$ double precision, parameter :: f236 = 3.5018d-2
$ double precision, parameter :: f237 = 1.2012d+2
$ double precision, parameter :: f238 = 2.2186d-3
$ double precision, parameter :: f239 = 2.9435d-3
$ double precision, parameter :: f240 = 1.5743d-4
$ double precision, parameter :: f241 = 2.8658d-1
$ double precision, parameter :: f242 = 1.0152d0
$ double precision, parameter :: f243 = 2.6501d-1
$ double precision, parameter :: f244 = 6.1909d+1
$ double precision, parameter :: f245 = 1.2893d-8
$ double precision, parameter :: f246 = 8.6318d-7
$ double precision, parameter :: f247 = 1.0421d-7
$ double precision, parameter :: f248 = 6.2487d+1
$ double precision, parameter :: f249 = 7.9396d-7
$ double precision, parameter :: f250 = 6.3100d-1
$ double precision, parameter :: f251 = 2.8612d-6
$ double precision, parameter :: f252 = 4.6207d0
$ double precision, parameter :: f253 = 4.8450d-2
$ double precision, parameter :: f254 = 9.3852d-4
$ double precision, parameter :: f255 = 8.5623d-3
$ double precision, parameter :: f256 = 1.4535d-8
$ double precision, parameter :: f257 = 1.7187d0
$ double precision, parameter :: f258 = 5.3733d-2
$ double precision, parameter :: f259 = 2.4214d-6
$ double precision, parameter :: f260 = 1.6378d-7
$ double precision, parameter :: f261 = 3.5383d-6
$ double precision, parameter :: f262 = 2.1577d+2
$ double precision, parameter :: f263 = 1.7361d+1
$ double precision, parameter :: f264 = 4.3558d0
$ double precision, parameter :: f265 = 8.0124d-1
$ double precision, parameter :: f266 = 4.3703d-8
$ double precision, parameter :: f267 = 1.1190d-8
$ double precision, parameter :: f268 = 2.0896d+1
$ double precision, parameter :: f269 = 6.7086d-4
$ double precision, parameter :: f270 = 7.8449d-2
$ double precision, parameter :: f271 = 4.8169d-2
$ double precision, parameter :: f272 = 4.1129d-3
$ double precision, parameter :: f273 = 3.9308d-1
$ double precision, parameter :: f274 = 8.9996d-6
$ double precision, parameter :: f275 = 1.1956d-4
$ double precision, parameter :: f276 = 7.8697d-5
$ double precision, parameter :: f277 = 3.3595d-7
$ double precision, parameter :: f278 = 1.3419d0
$ double precision, parameter :: f279 = 2.5821d-1
$ double precision, parameter :: f280 = 3.3865d-8
$ double precision, parameter :: f281 = 4.3939d+1
$ double precision, parameter :: f282 = 7.8444d-6
$ double precision, parameter :: f283 = 3.2510d-7
$ double precision, parameter :: f284 = 2.8678d-6
$ double precision, parameter :: f285 = 3.1198d+2
$ double precision, parameter :: f286 = 4.9590d0
$ double precision, parameter :: f287 = 4.2545d-8
$ double precision, parameter :: f288 = 3.6741d-8
$ double precision, parameter :: f289 = 1.3765d-8
$ double precision, parameter :: f290 = 9.7801d0
$ double precision, parameter :: f291 = 1.1038d+2
$ double precision, parameter :: f292 = 1.8469d+2
$ double precision, parameter :: f293 = 2.4161d-4
$ double precision, parameter :: f294 = 4.1580d+2
$ double precision, parameter :: f295 = 1.0392d-1
$ double precision, parameter :: f296 = 1.0920d+1
$ double precision, parameter :: f297 = 2.2877d-7
$ double precision, parameter :: f298 = 1.1405d-5
$ double precision, parameter :: f299 = 5.1436d-6
$ double precision, parameter :: f300 = 7.9185d-7
$ double precision, parameter :: f301 = 4.5372d+1
$ double precision, parameter :: f302 = 3.4527d-1
$ double precision, parameter :: f303 = 5.4322d-8
$ double precision, parameter :: f304 = 9.4891d+1
$ double precision, parameter :: f305 = 2.3071d-3
$ double precision, parameter :: f306 = 6.0591d-2
$ double precision, parameter :: f307 = 5.2005d-2
$ double precision, parameter :: f308 = 1.7657d-3
$ double precision, parameter :: f309 = 2.8715d-1
$ double precision, parameter :: f310 = 9.6169d-2
$ double precision, parameter :: f311 = 6.6285d0
$ double precision, parameter :: f312 = 4.8942d-5
$ double precision, parameter :: f313 = 1.3408d+2
$ double precision, parameter :: f314 = 3.3516d-4
$ double precision, parameter :: f315 = 4.9121d+1

# Electron Collision Reaction
e + CH4 => e + CH4(v24)		! f0 * Bolsig+ CH4 -> CH4(v24)
e + CH4 => e + CH4(v13)		! f1 * Bolsig+ CH4 -> CH4(v13)
e + C2H6 => e + C2H6(v24)		! f2 * Bolsig+ C2H6 -> C2H6(v24)
e + C2H6 => e + C2H6(v13)		! f3 * Bolsig+ C2H6 -> C2H6(v13)
e + C2H4 => e + C2H4(v1)		! f4 * Bolsig+ C2H4 -> C2H4(v1)
e + C2H4 => e + C2H4(v2)		! f5 * Bolsig+ C2H4 -> C2H4(v2)
e + C2H2 => e + C2H2(v5)		! f6 * Bolsig+ C2H2 -> C2H2(v5)
e + C2H2 => e + C2H2(v2)		! f7 * Bolsig+ C2H2 -> C2H2(v2)
e + C2H2 => e + C2H2(v13)		! f8 * Bolsig+ C2H2 -> C2H2(v13)
e + C3H8 => e + C3H8(v1)		! f9 * Bolsig+ C3H8 -> C3H8(v1)
e + C3H8 => e + C3H8(v2)		! f10 * Bolsig+ C3H8 -> C3H8(v2)
e + C3H6 => e + C3H6(v)		! f11 * Bolsig+ C3H6 -> C3H6(v)
e + CH4 => e + CH3 + H		! f12 * Bolsig+ CH4 -> CH3 H
e + CH4(v24) => e + CH3 + H		! f12 * Bolsig+ CH4(v24) -> CH3 H
e + CH4(v13) => e + CH3 + H		! f12 * Bolsig+ CH4(v13) -> CH3 H
e + CH4 => e + CH2 + H2		! f13 * Bolsig+ CH4 -> CH2 H2
e + CH4(v24) => e + CH2 + H2		! f13 * Bolsig+ CH4(v24) -> CH2 H2
e + CH4(v13) => e + CH2 + H2		! f13 * Bolsig+ CH4(v13) -> CH2 H2
e + CH4 => e + CH + H2 + H		! f14 * Bolsig+ CH4 -> CH H2 H
e + CH4(v24) => e + CH + H2 + H		! f14 * Bolsig+ CH4(v24) -> CH H2 H
e + CH4(v13) => e + CH + H2 + H		! f14 * Bolsig+ CH4(v13) -> CH H2 H
e + CH4 => e + C + H2 + H2		! f15 * Bolsig+ CH4 -> C H2 H2
e + CH4(v24) => e + C + H2 + H2		! f15 * Bolsig+ CH4(v24) -> C H2 H2
e + CH4(v13) => e + C + H2 + H2		! f15 * Bolsig+ CH4(v13) -> C H2 H2
e + CH3 => e + CH2 + H		! f16 * Bolsig+ CH3 -> CH2 H
e + CH3 => e + CH + H2		! f17 * Bolsig+ CH3 -> CH H2
e + CH3 => e + C + H2 + H		! f18 * Bolsig+ CH3 -> C H2 H
e + CH2 => e + CH + H		! f19 * Bolsig+ CH2 -> CH H
e + CH2 => e + C + H2		! f20 * Bolsig+ CH2 -> C H2
e + CH2 => e + C + H + H		! f21 * Bolsig+ CH2 -> C H H
e + CH => e + C + H		! f22 * Bolsig+ CH -> C H
e + CH4 => e + e + CH4^+		! f23 * Bolsig+ CH4 -> CH4^+
e + CH4(v24) => e + e + CH4^+		! f23 * Bolsig+ CH4(v24) -> CH4^+
e + CH4(v13) => e + e + CH4^+		! f23 * Bolsig+ CH4(v13) -> CH4^+
e + CH4 => e + e + H + CH3^+		! f24 * Bolsig+ CH4 -> H CH3^+
e + CH4(v24) => e + e + H + CH3^+		! f24 * Bolsig+ CH4(v24) -> H CH3^+
e + CH4(v13) => e + e + H + CH3^+		! f24 * Bolsig+ CH4(v13) -> H CH3^+
e + CH4 => e + e + H2 + CH2^+		! f25 * Bolsig+ CH4 -> H2 CH2^+
e + CH4(v24) => e + e + H2 + CH2^+		! f25 * Bolsig+ CH4(v24) -> H2 CH2^+
e + CH4(v13) => e + e + H2 + CH2^+		! f25 * Bolsig+ CH4(v13) -> H2 CH2^+
e + CH4 => e + e + H2 + H + CH^+		! f26 * Bolsig+ CH4 -> H2 H CH^+
e + CH4(v24) => e + e + H2 + H + CH^+		! f26 * Bolsig+ CH4(v24) -> H2 H CH^+
e + CH4(v13) => e + e + H2 + H + CH^+		! f26 * Bolsig+ CH4(v13) -> H2 H CH^+
e + CH3 => e + e + CH3^+		! f27 * Bolsig+ CH3 -> CH3^+
e + CH3 => e + e + H + CH2^+		! f28 * Bolsig+ CH3 -> H CH2^+
e + CH3 => e + e + H2 + CH^+		! f29 * Bolsig+ CH3 -> H2 CH^+
e + CH2 => e + e + CH2^+		! f30 * Bolsig+ CH2 -> CH2^+
e + CH2 => e + e + H + CH^+		! f31 * Bolsig+ CH2 -> H CH^+
e + CH => e + e + CH^+		! f32 * Bolsig+ CH -> CH^+
e + C2H6 => e + C2H5 + H		! f33 * Bolsig+ C2H6 -> C2H5 H
e + C2H6(v24) => e + C2H5 + H		! f33 * Bolsig+ C2H6(v24) -> C2H5 H
e + C2H6(v13) => e + C2H5 + H		! f33 * Bolsig+ C2H6(v13) -> C2H5 H
e + C2H6 => e + C2H4 + H2		! f34 * Bolsig+ C2H6 -> C2H4 H2
e + C2H6(v24) => e + C2H4 + H2		! f34 * Bolsig+ C2H6(v24) -> C2H4 H2
e + C2H6(v13) => e + C2H4 + H2		! f34 * Bolsig+ C2H6(v13) -> C2H4 H2
e + C2H6 => e + C2H3 + H2 + H		! f35 * Bolsig+ C2H6 -> C2H3 H2 H
e + C2H6(v24) => e + C2H3 + H2 + H		! f35 * Bolsig+ C2H6(v24) -> C2H3 H2 H
e + C2H6(v13) => e + C2H3 + H2 + H		! f35 * Bolsig+ C2H6(v13) -> C2H3 H2 H
e + C2H6 => e + C2H2 + H2 + H2		! f36 * Bolsig+ C2H6 -> C2H2 H2 H2
e + C2H6(v24) => e + C2H2 + H2 + H2		! f36 * Bolsig+ C2H6(v24) -> C2H2 H2 H2
e + C2H6(v13) => e + C2H2 + H2 + H2		! f36 * Bolsig+ C2H6(v13) -> C2H2 H2 H2
e + C2H6 => e + CH4 + CH2		! f37 * Bolsig+ C2H6 -> CH4 CH2
e + C2H6(v24) => e + CH4 + CH2		! f37 * Bolsig+ C2H6(v24) -> CH4 CH2
e + C2H6(v13) => e + CH4 + CH2		! f37 * Bolsig+ C2H6(v13) -> CH4 CH2
e + C2H6 => e + CH3 + CH3		! f38 * Bolsig+ C2H6 -> CH3 CH3
e + C2H6(v24) => e + CH3 + CH3		! f38 * Bolsig+ C2H6(v24) -> CH3 CH3
e + C2H6(v13) => e + CH3 + CH3		! f38 * Bolsig+ C2H6(v13) -> CH3 CH3
e + C2H5 => e + C2H4 + H		! f39 * Bolsig+ C2H5 -> C2H4 H
e + C2H5 => e + C2H3 + H2		! f40 * Bolsig+ C2H5 -> C2H3 H2
e + C2H5 => e + C2H3 + H + H		! f41 * Bolsig+ C2H5 -> C2H3 H H
e + C2H5 => e + C2H2 + H2 + H		! f42 * Bolsig+ C2H5 -> C2H2 H2 H
e + C2H5 => e + CH4 + CH		! f43 * Bolsig+ C2H5 -> CH4 CH
e + C2H5 => e + CH3 + CH2		! f44 * Bolsig+ C2H5 -> CH3 CH2
e + C2H4 => e + C2H3 + H		! f45 * Bolsig+ C2H4 -> C2H3 H
e + C2H4(v1) => e + C2H3 + H		! f45 * Bolsig+ C2H4(v1) -> C2H3 H
e + C2H4(v2) => e + C2H3 + H		! f45 * Bolsig+ C2H4(v2) -> C2H3 H
e + C2H4 => e + C2H2 + H2		! f46 * Bolsig+ C2H4 -> C2H2 H2
e + C2H4(v1) => e + C2H2 + H2		! f46 * Bolsig+ C2H4(v1) -> C2H2 H2
e + C2H4(v2) => e + C2H2 + H2		! f46 * Bolsig+ C2H4(v2) -> C2H2 H2
e + C2H4 => e + C2H2 + H + H		! f47 * Bolsig+ C2H4 -> C2H2 H H
e + C2H4(v1) => e + C2H2 + H + H		! f47 * Bolsig+ C2H4(v1) -> C2H2 H H
e + C2H4(v2) => e + C2H2 + H + H		! f47 * Bolsig+ C2H4(v2) -> C2H2 H H
e + C2H4 => e + CH3 + CH		! f48 * Bolsig+ C2H4 -> CH3 CH
e + C2H4(v1) => e + CH3 + CH		! f48 * Bolsig+ C2H4(v1) -> CH3 CH
e + C2H4(v2) => e + CH3 + CH		! f48 * Bolsig+ C2H4(v2) -> CH3 CH
e + C2H4 => e + CH2 + CH2		! f49 * Bolsig+ C2H4 -> CH2 CH2
e + C2H4(v1) => e + CH2 + CH2		! f49 * Bolsig+ C2H4(v1) -> CH2 CH2
e + C2H4(v2) => e + CH2 + CH2		! f49 * Bolsig+ C2H4(v2) -> CH2 CH2
e + C2H3 => e + C2H2 + H		! f50 * Bolsig+ C2H3 -> C2H2 H
e + C2H3 => e + CH2 + CH		! f51 * Bolsig+ C2H3 -> CH2 CH
e + C2H2 => e + CH + CH		! f52 * Bolsig+ C2H2 -> CH CH
e + C2H2(v5) => e + CH + CH		! f52 * Bolsig+ C2H2(v5) -> CH CH
e + C2H2(v2) => e + CH + CH		! f52 * Bolsig+ C2H2(v2) -> CH CH
e + C2H2(v13) => e + CH + CH		! f52 * Bolsig+ C2H2(v13) -> CH CH
e + C2H6 => e + e + C2H6^+		! f53 * Bolsig+ C2H6 -> C2H6^+
e + C2H6(v24) => e + e + C2H6^+		! f53 * Bolsig+ C2H6(v24) -> C2H6^+
e + C2H6(v13) => e + e + C2H6^+		! f53 * Bolsig+ C2H6(v13) -> C2H6^+
e + C2H6 => e + e + H + C2H5^+		! f54 * Bolsig+ C2H6 -> H C2H5^+
e + C2H6(v24) => e + e + H + C2H5^+		! f54 * Bolsig+ C2H6(v24) -> H C2H5^+
e + C2H6(v13) => e + e + H + C2H5^+		! f54 * Bolsig+ C2H6(v13) -> H C2H5^+
e + C2H6 => e + e + H2 + C2H4^+		! f55 * Bolsig+ C2H6 -> H2 C2H4^+
e + C2H6(v24) => e + e + H2 + C2H4^+		! f55 * Bolsig+ C2H6(v24) -> H2 C2H4^+
e + C2H6(v13) => e + e + H2 + C2H4^+		! f55 * Bolsig+ C2H6(v13) -> H2 C2H4^+
e + C2H6 => e + e + H2 + H + C2H3^+		! f56 * Bolsig+ C2H6 -> H2 H C2H3^+
e + C2H6(v24) => e + e + H2 + H + C2H3^+		! f56 * Bolsig+ C2H6(v24) -> H2 H C2H3^+
e + C2H6(v13) => e + e + H2 + H + C2H3^+		! f56 * Bolsig+ C2H6(v13) -> H2 H C2H3^+
e + C2H6 => e + e + H2 + H2 + C2H2^+		! f57 * Bolsig+ C2H6 -> H2 H2 C2H2^+
e + C2H6(v24) => e + e + H2 + H2 + C2H2^+		! f57 * Bolsig+ C2H6(v24) -> H2 H2 C2H2^+
e + C2H6(v13) => e + e + H2 + H2 + C2H2^+		! f57 * Bolsig+ C2H6(v13) -> H2 H2 C2H2^+
e + C2H6 => e + e + CH3 + CH3^+		! f58 * Bolsig+ C2H6 -> CH3 CH3^+
e + C2H6(v24) => e + e + CH3 + CH3^+		! f58 * Bolsig+ C2H6(v24) -> CH3 CH3^+
e + C2H6(v13) => e + e + CH3 + CH3^+		! f58 * Bolsig+ C2H6(v13) -> CH3 CH3^+
e + C2H6 => e + e + CH4 + CH2^+		! f59 * Bolsig+ C2H6 -> CH4 CH2^+
e + C2H6(v24) => e + e + CH4 + CH2^+		! f59 * Bolsig+ C2H6(v24) -> CH4 CH2^+
e + C2H6(v13) => e + e + CH4 + CH2^+		! f59 * Bolsig+ C2H6(v13) -> CH4 CH2^+
e + C2H5 => e + e + C2H5^+		! f60 * Bolsig+ C2H5 -> C2H5^+
e + C2H5 => e + e + H + C2H4^+		! f61 * Bolsig+ C2H5 -> H C2H4^+
e + C2H5 => e + e + H2 + C2H3^+		! f62 * Bolsig+ C2H5 -> H2 C2H3^+
e + C2H5 => e + e + H2 + H + C2H2^+		! f63 * Bolsig+ C2H5 -> H2 H C2H2^+
e + C2H5 => e + e + CH2 + CH3^+		! f64 * Bolsig+ C2H5 -> CH2 CH3^+
e + C2H5 => e + e + CH3 + CH2^+		! f65 * Bolsig+ C2H5 -> CH3 CH2^+
e + C2H5 => e + e + CH4 + CH^+		! f66 * Bolsig+ C2H5 -> CH4 CH^+
e + C2H4 => e + e + C2H4^+		! f67 * Bolsig+ C2H4 -> C2H4^+
e + C2H4(v1) => e + e + C2H4^+		! f67 * Bolsig+ C2H4(v1) -> C2H4^+
e + C2H4(v2) => e + e + C2H4^+		! f67 * Bolsig+ C2H4(v2) -> C2H4^+
e + C2H4 => e + e + H + C2H3^+		! f68 * Bolsig+ C2H4 -> H C2H3^+
e + C2H4(v1) => e + e + H + C2H3^+		! f68 * Bolsig+ C2H4(v1) -> H C2H3^+
e + C2H4(v2) => e + e + H + C2H3^+		! f68 * Bolsig+ C2H4(v2) -> H C2H3^+
e + C2H4 => e + e + CH + CH3^+		! f69 * Bolsig+ C2H4 -> CH CH3^+
e + C2H4(v1) => e + e + CH + CH3^+		! f69 * Bolsig+ C2H4(v1) -> CH CH3^+
e + C2H4(v2) => e + e + CH + CH3^+		! f69 * Bolsig+ C2H4(v2) -> CH CH3^+
e + C2H4 => e + e + CH2 + CH2^+		! f70 * Bolsig+ C2H4 -> CH2 CH2^+
e + C2H4(v1) => e + e + CH2 + CH2^+		! f70 * Bolsig+ C2H4(v1) -> CH2 CH2^+
e + C2H4(v2) => e + e + CH2 + CH2^+		! f70 * Bolsig+ C2H4(v2) -> CH2 CH2^+
e + C2H4 => e + e + CH3 + CH^+		! f71 * Bolsig+ C2H4 -> CH3 CH^+
e + C2H4(v1) => e + e + CH3 + CH^+		! f71 * Bolsig+ C2H4(v1) -> CH3 CH^+
e + C2H4(v2) => e + e + CH3 + CH^+		! f71 * Bolsig+ C2H4(v2) -> CH3 CH^+
e + C2H3 => e + e + C2H3^+		! f72 * Bolsig+ C2H3 -> C2H3^+
e + C2H3 => e + e + H + C2H2^+		! f73 * Bolsig+ C2H3 -> H C2H2^+
e + C2H3 => e + e + CH + CH2^+		! f74 * Bolsig+ C2H3 -> CH CH2^+
e + C2H3 => e + e + CH2 + CH^+		! f75 * Bolsig+ C2H3 -> CH2 CH^+
e + C2H3 => e + e + C2H2 + H^+		! f76 * Bolsig+ C2H3 -> C2H2 H^+
e + C2H2 => e + e + C2H2^+		! f77 * Bolsig+ C2H2 -> C2H2^+
e + C2H2(v5) => e + e + C2H2^+		! f77 * Bolsig+ C2H2(v5) -> C2H2^+
e + C2H2(v2) => e + e + C2H2^+		! f77 * Bolsig+ C2H2(v2) -> C2H2^+
e + C2H2(v13) => e + e + C2H2^+		! f77 * Bolsig+ C2H2(v13) -> C2H2^+
e + C2H2 => e + e + CH + CH^+		! f78 * Bolsig+ C2H2 -> CH CH^+
e + C2H2(v5) => e + e + CH + CH^+		! f78 * Bolsig+ C2H2(v5) -> CH CH^+
e + C2H2(v2) => e + e + CH + CH^+		! f78 * Bolsig+ C2H2(v2) -> CH CH^+
e + C2H2(v13) => e + e + CH + CH^+		! f78 * Bolsig+ C2H2(v13) -> CH CH^+
e + C3H8 => e + C3H7 + H		! f79 * Bolsig+ C3H8 -> C3H7 H
e + C3H8(v1) => e + C3H7 + H		! f79 * Bolsig+ C3H8(v1) -> C3H7 H
e + C3H8(v2) => e + C3H7 + H		! f79 * Bolsig+ C3H8(v2) -> C3H7 H
e + C3H8 => e + C3H6 + H2		! f80 * Bolsig+ C3H8 -> C3H6 H2
e + C3H8(v1) => e + C3H6 + H2		! f80 * Bolsig+ C3H8(v1) -> C3H6 H2
e + C3H8(v2) => e + C3H6 + H2		! f80 * Bolsig+ C3H8(v2) -> C3H6 H2
e + C3H7 => e + C3H6 + H		! f81 * Bolsig+ C3H7 -> C3H6 H
e + C3H8 => e + e + C3H8^+		! f82 * Bolsig+ C3H8 -> C3H8^+
e + C3H8(v1) => e + e + C3H8^+		! f82 * Bolsig+ C3H8(v1) -> C3H8^+
e + C3H8(v2) => e + e + C3H8^+		! f82 * Bolsig+ C3H8(v2) -> C3H8^+
e + C3H8 => e + e + H + C3H7^+		! f83 * Bolsig+ C3H8 -> H C3H7^+
e + C3H8(v1) => e + e + H + C3H7^+		! f83 * Bolsig+ C3H8(v1) -> H C3H7^+
e + C3H8(v2) => e + e + H + C3H7^+		! f83 * Bolsig+ C3H8(v2) -> H C3H7^+
e + C3H8 => e + e + H2 + C3H6^+		! f84 * Bolsig+ C3H8 -> H2 C3H6^+
e + C3H8(v1) => e + e + H2 + C3H6^+		! f84 * Bolsig+ C3H8(v1) -> H2 C3H6^+
e + C3H8(v2) => e + e + H2 + C3H6^+		! f84 * Bolsig+ C3H8(v2) -> H2 C3H6^+
e + C3H7 => e + e + C3H7^+		! f85 * Bolsig+ C3H7 -> C3H7^+
e + C3H7 => e + e + H + C3H6^+		! f86 * Bolsig+ C3H7 -> H C3H6^+
e + C3H6 => e + e + C3H6^+		! f87 * Bolsig+ C3H6 -> C3H6^+
e + C3H6(v) => e + e + C3H6^+		! f87 * Bolsig+ C3H6(v) -> C3H6^+
e + C3H6 => e + C2H2 + CH4		! f88 * Bolsig+ C3H6 -> C2H2 CH4
e + C3H6(v) => e + C2H2 + CH4		! f88 * Bolsig+ C3H6(v) -> C2H2 CH4
e + C3H6 => e + e + C2H2 + CH4^+		! f89 * Bolsig+ C3H6 -> C2H2 CH4^+
e + C3H6(v) => e + e + C2H2 + CH4^+		! f89 * Bolsig+ C3H6(v) -> C2H2 CH4^+

# Ion Recombination Reaction
e + e + CH^+ => e + CH		! f90 * 1.00d0
e + e + CH2^+ => e + CH2		! f91 * 1.00d0
e + e + CH3^+ => e + CH3		! f92 * 1.00d0
e + e + CH4^+ => e + CH4		! f93 * 1.00d0
e + e + C2H2^+ => e + C2H2		! f94 * 1.00d0
e + e + C2H3^+ => e + C2H3		! f95 * 1.00d0
e + e + C2H4^+ => e + C2H4		! f96 * 1.00d0
e + e + C2H5^+ => e + C2H5		! f97 * 1.00d0
e + e + C2H6^+ => e + C2H6		! f98 * 1.00d0
e + e + C3H6^+ => e + C3H6		! f99 * 1.00d0
e + e + C3H7^+ => e + C3H7		! f100 * 1.00d0
e + e + C3H8^+ => e + C3H8		! f101 * 1.00d0

# Gas Phase Reaction
e + CH4^+ => CH3 + H		! f102 * 1.18d-08 * (300./Tgas)**0.5
e + CH4^+ => CH2 + H + H		! f103 * 2.42d-08 * (300./Tgas)**0.5
e + CH4^+ => CH + H2 + H		! f104 * 1.41d-08 * (300./Tgas)**0.5
e + CH3^+ => CH2 + H		! f105 * 2.25d-08 * (300./Tgas)**0.5
e + CH3^+ => CH + H2		! f106 * 7.88d-09 * (300./Tgas)**0.5
e + CH3^+ => CH + H + H		! f107 * 9.00d-09 * (300./Tgas)**0.5
e + CH3^+ => C + H2 + H		! f108 * 1.69d-08 * (300./Tgas)**0.5
e + CH2^+ => CH + H		! f109 * 1.00d-08 * (300./Tgas)**0.5
e + CH2^+ => C + H2		! f110 * 4.82d-09 * (300./Tgas)**0.5
e + CH2^+ => C + H + H		! f111 * 2.53d-08 * (300./Tgas)**0.5
e + CH^+ => C + H		! f112 * 3.23d-08 * (300./Tgas)**0.42
e + C2H6^+ => C2H5 + H		! f113 * 2.19d-08 * (300./Tgas)**0.71
e + C2H6^+ => C2H4 + H + H		! f114 * 3.36d-08 * (300./Tgas)**0.71
e + C2H5^+ => C2H4 + H		! f115 * 7.70d-09 * (300./Tgas)**0.71
e + C2H5^+ => C2H3 + H + H		! f116 * 1.92d-08 * (300./Tgas)**0.71
e + C2H5^+ => C2H2 + H2 + H		! f117 * 1.60d-08 * (300./Tgas)**0.71
e + C2H5^+ => C2H2 + H + H + H		! f118 * 8.98d-09 * (300./Tgas)**0.71
e + C2H5^+ => CH3 + CH2		! f119 * 9.62d-09 * (300./Tgas)**0.71
e + C2H4^+ => C2H3 + H		! f120 * 8.29d-09 * (300./Tgas)**0.71
e + C2H4^+ => C2H2 + H + H		! f121 * 3.43d-08 * (300./Tgas)**0.71
e + C2H3^+ => C2H2 + H		! f122 * 1.34d-08 * (300./Tgas)**0.71
e + C2H2^+ => CH + CH		! f123 * 4.87d-09 * (300./Tgas)**0.71
e + H2^+ => H + H		! f124 * 3.17d21/(6.022d23 * Te**4.5)
e + H3^+ => H + H2		! f125 * 3.17d21/(6.022d23 * Te**4.5)
H2 + H2^+ => H + H3^+		! f126 * 2.11d-09
C2H6 + CH4^+ => CH4 + H2 + C2H4^+		! f127 * 1.91d-9
C2H6(v24) + CH4^+ => CH4 + H2 + C2H4^+		! f127 * 1.91d-9
C2H6(v13) + CH4^+ => CH4 + H2 + C2H4^+		! f127 * 1.91d-9
C2H4 + CH4^+ => CH3 + C2H5^+		! f128 * 4.23d-10