ELEMENTS
e C H
END

SPECIES
e C CH CH^+ CH2 CH2^+ CH3 CH3^+ CH4 CH4(v13) CH4(v24) CH4^+ C2H2 C2H2(v13) C2H2(v2) C2H2(v5) C2H2^+ C2H3 C2H3^+ C2H4 C2H4(v1) C2H4(v2) C2H4^+ C2H5 C2H5^+
C2H6 C2H6(v13) C2H6(v24) C2H6^+ C3H5 C3H6 C3H6(v) C3H6^+ C3H7 C3H7^+ C3H8 C3H8(v1) C3H8(v2) C3H8^+ C4H9 C4H9H C2H C5H12 H H2 H2^+ H3^+ H^+
END

BOLSIG
CH CH2 CH3 CH4 CH4(v13) CH4(v24) C2H2 C2H2(v13) C2H2(v2) C2H2(v5) C2H3 C2H4 C2H4(v1) C2H4(v2) C2H5 C2H6 C2H6(v13) C2H6(v24) C3H6 C3H6(v) C3H7 C3H8 C3H8(v1) C3H8(v2)
END

REACTIONS
# Gas Constant
$ double precision, parameter :: R = 8.314d-3

# Compensation Parameters
$ double precision, parameter :: f0 = 4.7348d-5
$ double precision, parameter :: f1 = 8.4498d-8
$ double precision, parameter :: f2 = 7.9503d-3
$ double precision, parameter :: f3 = 2.5575d-6
$ double precision, parameter :: f4 = 1.0608d-1
$ double precision, parameter :: f5 = 5.5623d-5
$ double precision, parameter :: f6 = 1.4445d+1
$ double precision, parameter :: f7 = 8.0171d-8
$ double precision, parameter :: f8 = 5.4636d-6
$ double precision, parameter :: f9 = 7.0411d-1
$ double precision, parameter :: f10 = 3.9004d-3
$ double precision, parameter :: f11 = 3.6740d-7
$ double precision, parameter :: f12 = 4.1669d-8
$ double precision, parameter :: f13 = 3.4785d-1
$ double precision, parameter :: f14 = 3.4470d-7
$ double precision, parameter :: f15 = 5.5644d-6
$ double precision, parameter :: f16 = 1.5274d+1
$ double precision, parameter :: f17 = 1.1500d-2
$ double precision, parameter :: f18 = 5.6034d-4
$ double precision, parameter :: f19 = 2.4251d-6
$ double precision, parameter :: f20 = 6.5908d-1
$ double precision, parameter :: f21 = 3.0577d0
$ double precision, parameter :: f22 = 8.4623d-1
$ double precision, parameter :: f23 = 4.5931d0
$ double precision, parameter :: f24 = 3.0543d-4
$ double precision, parameter :: f25 = 2.8483d-4
$ double precision, parameter :: f26 = 1.2019d-5
$ double precision, parameter :: f27 = 5.1668d-8
$ double precision, parameter :: f28 = 3.6976d-6
$ double precision, parameter :: f29 = 3.2519d-2
$ double precision, parameter :: f30 = 2.8890d-6
$ double precision, parameter :: f31 = 1.5577d-1
$ double precision, parameter :: f32 = 3.9882d+2
$ double precision, parameter :: f33 = 1.0158d-7
$ double precision, parameter :: f34 = 6.1291d-3
$ double precision, parameter :: f35 = 1.0272d-2
$ double precision, parameter :: f36 = 1.3976d-1
$ double precision, parameter :: f37 = 1.2582d-8
$ double precision, parameter :: f38 = 1.4584d-5
$ double precision, parameter :: f39 = 7.9438d-2
$ double precision, parameter :: f40 = 3.4519d-2
$ double precision, parameter :: f41 = 2.7056d+1
$ double precision, parameter :: f42 = 2.3303d-2
$ double precision, parameter :: f43 = 1.1538d-5
$ double precision, parameter :: f44 = 1.0307d-3
$ double precision, parameter :: f45 = 8.8834d-7
$ double precision, parameter :: f46 = 8.4602d-4
$ double precision, parameter :: f47 = 4.4080d0
$ double precision, parameter :: f48 = 2.8084d-2
$ double precision, parameter :: f49 = 1.2322d+1
$ double precision, parameter :: f50 = 1.5680d-1
$ double precision, parameter :: f51 = 7.4643d0
$ double precision, parameter :: f52 = 1.4530d-8
$ double precision, parameter :: f53 = 4.6562d-7
$ double precision, parameter :: f54 = 4.2752d-1
$ double precision, parameter :: f55 = 8.0513d-4
$ double precision, parameter :: f56 = 6.6676d-5
$ double precision, parameter :: f57 = 4.8916d-7
$ double precision, parameter :: f58 = 1.8300d-3
$ double precision, parameter :: f59 = 3.1023d+2
$ double precision, parameter :: f60 = 3.3790d+2
$ double precision, parameter :: f61 = 1.0920d-6
$ double precision, parameter :: f62 = 1.1416d-5
$ double precision, parameter :: f63 = 1.3006d+2
$ double precision, parameter :: f64 = 1.1159d-8
$ double precision, parameter :: f65 = 4.5038d-1
$ double precision, parameter :: f66 = 7.3353d-6
$ double precision, parameter :: f67 = 2.7339d-4
$ double precision, parameter :: f68 = 5.7991d-8
$ double precision, parameter :: f69 = 6.1388d-5
$ double precision, parameter :: f70 = 3.1373d+2
$ double precision, parameter :: f71 = 3.1707d-1
$ double precision, parameter :: f72 = 3.6940d+2
$ double precision, parameter :: f73 = 4.4889d-7
$ double precision, parameter :: f74 = 4.8907d-1
$ double precision, parameter :: f75 = 2.7983d-7
$ double precision, parameter :: f76 = 3.9607d-7
$ double precision, parameter :: f77 = 3.4298d+1
$ double precision, parameter :: f78 = 3.2968d-7
$ double precision, parameter :: f79 = 2.6551d-5
$ double precision, parameter :: f80 = 3.6267d-6
$ double precision, parameter :: f81 = 7.3659d-5
$ double precision, parameter :: f82 = 2.9565d-7
$ double precision, parameter :: f83 = 4.4288d-7
$ double precision, parameter :: f84 = 6.8551d0
$ double precision, parameter :: f85 = 4.9510d-5
$ double precision, parameter :: f86 = 1.4790d-4
$ double precision, parameter :: f87 = 7.7266d0
$ double precision, parameter :: f88 = 1.3021d-7
$ double precision, parameter :: f89 = 1.7830d-5
$ double precision, parameter :: f90 = 7.8545d0
$ double precision, parameter :: f91 = 3.3010d-1
$ double precision, parameter :: f92 = 2.2161d-6
$ double precision, parameter :: f93 = 2.8817d-3
$ double precision, parameter :: f94 = 1.0056d-8
$ double precision, parameter :: f95 = 6.1036d-3
$ double precision, parameter :: f96 = 1.2175d-4
$ double precision, parameter :: f97 = 2.9922d-2
$ double precision, parameter :: f98 = 1.4313d+2
$ double precision, parameter :: f99 = 5.5308d-4
$ double precision, parameter :: f100 = 8.4461d-4
$ double precision, parameter :: f101 = 1.1822d-3
$ double precision, parameter :: f102 = 6.5382d-3
$ double precision, parameter :: f103 = 7.8632d-1
$ double precision, parameter :: f104 = 1.8439d-3
$ double precision, parameter :: f105 = 4.7623d-4
$ double precision, parameter :: f106 = 1.0786d-6
$ double precision, parameter :: f107 = 1.4594d-3
$ double precision, parameter :: f108 = 7.1133d+1
$ double precision, parameter :: f109 = 2.6346d-5
$ double precision, parameter :: f110 = 6.2661d-5
$ double precision, parameter :: f111 = 5.6702d-8
$ double precision, parameter :: f112 = 3.7251d-8
$ double precision, parameter :: f113 = 2.7728d-4
$ double precision, parameter :: f114 = 3.1623d-6
$ double precision, parameter :: f115 = 1.6198d-7
$ double precision, parameter :: f116 = 8.3170d+1
$ double precision, parameter :: f117 = 8.4966d-6
$ double precision, parameter :: f118 = 1.5883d-3
$ double precision, parameter :: f119 = 1.9721d+2
$ double precision, parameter :: f120 = 1.4061d-3
$ double precision, parameter :: f121 = 5.0696d+2
$ double precision, parameter :: f122 = 8.3422d-7
$ double precision, parameter :: f123 = 9.2716d+2
$ double precision, parameter :: f124 = 1.2653d-6
$ double precision, parameter :: f125 = 2.4022d+2
$ double precision, parameter :: f126 = 8.2575d0
$ double precision, parameter :: f127 = 1.0073d-1
$ double precision, parameter :: f128 = 1.9189d-1
$ double precision, parameter :: f129 = 4.6373d-8
$ double precision, parameter :: f130 = 3.3154d0
$ double precision, parameter :: f131 = 2.0446d+2
$ double precision, parameter :: f132 = 8.3172d-7
$ double precision, parameter :: f133 = 7.6639d-5
$ double precision, parameter :: f134 = 8.9819d-8
$ double precision, parameter :: f135 = 6.9444d-3
$ double precision, parameter :: f136 = 1.1335d-2
$ double precision, parameter :: f137 = 4.7369d0
$ double precision, parameter :: f138 = 2.5066d-1
$ double precision, parameter :: f139 = 6.4997d0
$ double precision, parameter :: f140 = 2.1651d-2
$ double precision, parameter :: f141 = 8.1619d-6
$ double precision, parameter :: f142 = 6.2906d+2
$ double precision, parameter :: f143 = 6.5880d-7
$ double precision, parameter :: f144 = 1.6736d+1
$ double precision, parameter :: f145 = 2.5428d+2
$ double precision, parameter :: f146 = 1.9981d-5
$ double precision, parameter :: f147 = 4.0742d+2
$ double precision, parameter :: f148 = 2.5726d+1
$ double precision, parameter :: f149 = 3.1609d-7
$ double precision, parameter :: f150 = 4.0298d-6
$ double precision, parameter :: f151 = 6.5090d-3
$ double precision, parameter :: f152 = 1.0184d-4
$ double precision, parameter :: f153 = 3.1240d-4
$ double precision, parameter :: f154 = 8.5408d-5
$ double precision, parameter :: f155 = 7.5931d+2
$ double precision, parameter :: f156 = 3.4248d-3
$ double precision, parameter :: f157 = 8.0976d-5
$ double precision, parameter :: f158 = 5.6164d-6
$ double precision, parameter :: f159 = 1.5333d-1
$ double precision, parameter :: f160 = 2.4231d-7
$ double precision, parameter :: f161 = 2.9498d-7
$ double precision, parameter :: f162 = 7.2036d-1
$ double precision, parameter :: f163 = 4.0962d-6
$ double precision, parameter :: f164 = 6.7108d-6
$ double precision, parameter :: f165 = 5.4650d+1
$ double precision, parameter :: f166 = 8.0457d-8
$ double precision, parameter :: f167 = 3.6617d-5
$ double precision, parameter :: f168 = 1.6323d-1
$ double precision, parameter :: f169 = 9.1495d-3
$ double precision, parameter :: f170 = 3.6032d-6
$ double precision, parameter :: f171 = 5.8804d+1
$ double precision, parameter :: f172 = 4.8157d-8
$ double precision, parameter :: f173 = 2.7839d+1
$ double precision, parameter :: f174 = 4.6100d-6
$ double precision, parameter :: f175 = 9.0090d-5
$ double precision, parameter :: f176 = 2.3286d-2
$ double precision, parameter :: f177 = 6.4736d-5
$ double precision, parameter :: f178 = 1.9776d0
$ double precision, parameter :: f179 = 2.5078d+2
$ double precision, parameter :: f180 = 8.9238d-4
$ double precision, parameter :: f181 = 4.0099d-4
$ double precision, parameter :: f182 = 1.4049d+2
$ double precision, parameter :: f183 = 2.0268d-3
$ double precision, parameter :: f184 = 2.4984d-4
$ double precision, parameter :: f185 = 1.9423d0
$ double precision, parameter :: f186 = 2.5953d-7
$ double precision, parameter :: f187 = 1.8995d-1
$ double precision, parameter :: f188 = 3.0991d-8
$ double precision, parameter :: f189 = 1.6600d+2
$ double precision, parameter :: f190 = 7.1708d-1
$ double precision, parameter :: f191 = 4.3844d-3
$ double precision, parameter :: f192 = 1.8624d+1
$ double precision, parameter :: f193 = 1.1343d-6
$ double precision, parameter :: f194 = 2.6254d-4
$ double precision, parameter :: f195 = 2.3038d-3
$ double precision, parameter :: f196 = 1.3292d-1
$ double precision, parameter :: f197 = 2.4265d-2
$ double precision, parameter :: f198 = 1.5022d-7
$ double precision, parameter :: f199 = 7.8132d-7
$ double precision, parameter :: f200 = 1.8680d0
$ double precision, parameter :: f201 = 3.9769d0
$ double precision, parameter :: f202 = 4.8664d+1
$ double precision, parameter :: f203 = 1.3231d-3
$ double precision, parameter :: f204 = 1.0184d+1
$ double precision, parameter :: f205 = 8.7333d-2
$ double precision, parameter :: f206 = 1.6259d+2
$ double precision, parameter :: f207 = 4.3074d-3
$ double precision, parameter :: f208 = 3.9661d-6
$ double precision, parameter :: f209 = 6.6770d+2
$ double precision, parameter :: f210 = 4.1533d-3
$ double precision, parameter :: f211 = 3.5643d0
$ double precision, parameter :: f212 = 7.9934d0
$ double precision, parameter :: f213 = 1.1448d0
$ double precision, parameter :: f214 = 3.4858d-4
$ double precision, parameter :: f215 = 1.8475d-5
$ double precision, parameter :: f216 = 1.2375d-5
$ double precision, parameter :: f217 = 1.0514d-3
$ double precision, parameter :: f218 = 1.0786d-6
$ double precision, parameter :: f219 = 7.5306d-2
$ double precision, parameter :: f220 = 5.3958d-7
$ double precision, parameter :: f221 = 9.7888d-2
$ double precision, parameter :: f222 = 1.1267d-8
$ double precision, parameter :: f223 = 1.2242d-2
$ double precision, parameter :: f224 = 1.7250d-3
$ double precision, parameter :: f225 = 8.7230d-6
$ double precision, parameter :: f226 = 2.5442d+2
$ double precision, parameter :: f227 = 1.1517d-4
$ double precision, parameter :: f228 = 3.9202d+2
$ double precision, parameter :: f229 = 2.5033d-2
$ double precision, parameter :: f230 = 1.1264d-1
$ double precision, parameter :: f231 = 2.8787d-7
$ double precision, parameter :: f232 = 3.1055d-3
$ double precision, parameter :: f233 = 1.5262d+2
$ double precision, parameter :: f234 = 3.5454d-3
$ double precision, parameter :: f235 = 2.6588d-1
$ double precision, parameter :: f236 = 1.6792d-5
$ double precision, parameter :: f237 = 3.3620d-8
$ double precision, parameter :: f238 = 2.6623d-5
$ double precision, parameter :: f239 = 6.1829d-5
$ double precision, parameter :: f240 = 1.4292d-5
$ double precision, parameter :: f241 = 1.5492d-7
$ double precision, parameter :: f242 = 1.9024d-7
$ double precision, parameter :: f243 = 4.8297d+2
$ double precision, parameter :: f244 = 5.1826d-6
$ double precision, parameter :: f245 = 1.5644d-1
$ double precision, parameter :: f246 = 1.4082d-2
$ double precision, parameter :: f247 = 1.4823d+2
$ double precision, parameter :: f248 = 7.2915d-4
$ double precision, parameter :: f249 = 3.1402d-1
$ double precision, parameter :: f250 = 6.0516d+2
$ double precision, parameter :: f251 = 2.6704d-2
$ double precision, parameter :: f252 = 1.2525d-1
$ double precision, parameter :: f253 = 1.2777d-1
$ double precision, parameter :: f254 = 7.2712d-7
$ double precision, parameter :: f255 = 1.2902d-8
$ double precision, parameter :: f256 = 6.1370d0
$ double precision, parameter :: f257 = 2.9478d-4
$ double precision, parameter :: f258 = 8.2675d-8
$ double precision, parameter :: f259 = 3.5187d-2
$ double precision, parameter :: f260 = 1.4118d-1
$ double precision, parameter :: f261 = 1.5061d-5
$ double precision, parameter :: f262 = 2.2277d-2
$ double precision, parameter :: f263 = 4.1626d-1
$ double precision, parameter :: f264 = 2.2773d-3
$ double precision, parameter :: f265 = 3.6865d-4
$ double precision, parameter :: f266 = 3.6550d-7
$ double precision, parameter :: f267 = 1.8138d-4
$ double precision, parameter :: f268 = 1.5523d+1
$ double precision, parameter :: f269 = 4.0868d-7
$ double precision, parameter :: f270 = 1.7123d0
$ double precision, parameter :: f271 = 3.1128d-5
$ double precision, parameter :: f272 = 6.1308d-1
$ double precision, parameter :: f273 = 6.4117d0
$ double precision, parameter :: f274 = 1.4119d-4
$ double precision, parameter :: f275 = 3.1583d-4
$ double precision, parameter :: f276 = 3.9553d+1
$ double precision, parameter :: f277 = 8.5722d-7
$ double precision, parameter :: f278 = 3.1235d-3
$ double precision, parameter :: f279 = 1.8810d+1
$ double precision, parameter :: f280 = 9.2738d+2
$ double precision, parameter :: f281 = 9.8556d-1
$ double precision, parameter :: f282 = 1.2583d-4
$ double precision, parameter :: f283 = 2.6006d-8
$ double precision, parameter :: f284 = 2.3679d-5
$ double precision, parameter :: f285 = 7.6902d+1
$ double precision, parameter :: f286 = 3.9988d-6
$ double precision, parameter :: f287 = 9.2895d0
$ double precision, parameter :: f288 = 1.1177d-6
$ double precision, parameter :: f289 = 4.8249d-2
$ double precision, parameter :: f290 = 4.7297d-6
$ double precision, parameter :: f291 = 1.0940d-8
$ double precision, parameter :: f292 = 7.9255d-3
$ double precision, parameter :: f293 = 1.3434d-5
$ double precision, parameter :: f294 = 1.3700d+1
$ double precision, parameter :: f295 = 8.0640d-5
$ double precision, parameter :: f296 = 8.7129d-6
$ double precision, parameter :: f297 = 1.0485d-2
$ double precision, parameter :: f298 = 3.3825d-7
$ double precision, parameter :: f299 = 6.3349d-1
$ double precision, parameter :: f300 = 6.8688d-6
$ double precision, parameter :: f301 = 1.5700d+2
$ double precision, parameter :: f302 = 1.4174d-2
$ double precision, parameter :: f303 = 4.7560d-7
$ double precision, parameter :: f304 = 8.7865d0
$ double precision, parameter :: f305 = 3.4955d-5
$ double precision, parameter :: f306 = 1.3203d-6
$ double precision, parameter :: f307 = 4.6280d-1
$ double precision, parameter :: f308 = 1.7098d-4
$ double precision, parameter :: f309 = 7.5977d+2
$ double precision, parameter :: f310 = 3.8755d+1
$ double precision, parameter :: f311 = 3.0957d+2
$ double precision, parameter :: f312 = 8.3249d+2
$ double precision, parameter :: f313 = 5.1093d0
$ double precision, parameter :: f314 = 9.0165d-5
$ double precision, parameter :: f315 = 7.0679d-8

# Electron Collision Reaction
e + CH4 => e + CH4(v24)		! f0 * Bolsig+ CH4 -> CH4(v24)
e + CH4 => e + CH4(v13)		! f1 * Bolsig+ CH4 -> CH4(v13)
e + C2H6 => e + C2H6(v24)		! f2 * Bolsig+ C2H6 -> C2H6(v24)
e + C2H6 => e + C2H6(v13)		! f3 * Bolsig+ C2H6 -> C2H6(v13)
e + C2H4 => e + C2H4(v1)		! f4 * Bolsig+ C2H4 -> C2H4(v1)
e + C2H4 => e + C2H4(v2)		! f5 * Bolsig+ C2H4 -> C2H4(v2)
e + C2H2 => e + C2H2(v5)		! f6 * Bolsig+ C2H2 -> C2H2(v5)
e + C2H2 => e + C2H2(v2)		! f7 * Bolsig+ C2H2 -> C2H2(v2)
e + C2H2 => e + C2H2(v13)		! f8 * Bolsig+ C2H2 -> C2H2(v13)
e + C3H8 => e + C3H8(v1)		! f9 * Bolsig+ C3H8 -> C3H8(v1)
e + C3H8 => e + C3H8(v2)		! f10 * Bolsig+ C3H8 -> C3H8(v2)
e + C3H6 => e + C3H6(v)		! f11 * Bolsig+ C3H6 -> C3H6(v)
e + CH4 => e + CH3 + H		! f12 * Bolsig+ CH4 -> CH3 H
e + CH4(v24) => e + CH3 + H		! f12 * Bolsig+ CH4(v24) -> CH3 H
e + CH4(v13) => e + CH3 + H		! f12 * Bolsig+ CH4(v13) -> CH3 H
e + CH4 => e + CH2 + H2		! f13 * Bolsig+ CH4 -> CH2 H2
e + CH4(v24) => e + CH2 + H2		! f13 * Bolsig+ CH4(v24) -> CH2 H2
e + CH4(v13) => e + CH2 + H2		! f13 * Bolsig+ CH4(v13) -> CH2 H2
e + CH4 => e + CH + H2 + H		! f14 * Bolsig+ CH4 -> CH H2 H
e + CH4(v24) => e + CH + H2 + H		! f14 * Bolsig+ CH4(v24) -> CH H2 H
e + CH4(v13) => e + CH + H2 + H		! f14 * Bolsig+ CH4(v13) -> CH H2 H
e + CH4 => e + C + H2 + H2		! f15 * Bolsig+ CH4 -> C H2 H2
e + CH4(v24) => e + C + H2 + H2		! f15 * Bolsig+ CH4(v24) -> C H2 H2
e + CH4(v13) => e + C + H2 + H2		! f15 * Bolsig+ CH4(v13) -> C H2 H2
e + CH3 => e + CH2 + H		! f16 * Bolsig+ CH3 -> CH2 H
e + CH3 => e + CH + H2		! f17 * Bolsig+ CH3 -> CH H2
e + CH3 => e + C + H2 + H		! f18 * Bolsig+ CH3 -> C H2 H
e + CH2 => e + CH + H		! f19 * Bolsig+ CH2 -> CH H
e + CH2 => e + C + H2		! f20 * Bolsig+ CH2 -> C H2
e + CH2 => e + C + H + H		! f21 * Bolsig+ CH2 -> C H H
e + CH => e + C + H		! f22 * Bolsig+ CH -> C H
e + CH4 => e + e + CH4^+		! f23 * Bolsig+ CH4 -> CH4^+
e + CH4(v24) => e + e + CH4^+		! f23 * Bolsig+ CH4(v24) -> CH4^+
e + CH4(v13) => e + e + CH4^+		! f23 * Bolsig+ CH4(v13) -> CH4^+
e + CH4 => e + e + H + CH3^+		! f24 * Bolsig+ CH4 -> H CH3^+
e + CH4(v24) => e + e + H + CH3^+		! f24 * Bolsig+ CH4(v24) -> H CH3^+
e + CH4(v13) => e + e + H + CH3^+		! f24 * Bolsig+ CH4(v13) -> H CH3^+
e + CH4 => e + e + H2 + CH2^+		! f25 * Bolsig+ CH4 -> H2 CH2^+
e + CH4(v24) => e + e + H2 + CH2^+		! f25 * Bolsig+ CH4(v24) -> H2 CH2^+
e + CH4(v13) => e + e + H2 + CH2^+		! f25 * Bolsig+ CH4(v13) -> H2 CH2^+
e + CH4 => e + e + H2 + H + CH^+		! f26 * Bolsig+ CH4 -> H2 H CH^+
e + CH4(v24) => e + e + H2 + H + CH^+		! f26 * Bolsig+ CH4(v24) -> H2 H CH^+
e + CH4(v13) => e + e + H2 + H + CH^+		! f26 * Bolsig+ CH4(v13) -> H2 H CH^+
e + CH3 => e + e + CH3^+		! f27 * Bolsig+ CH3 -> CH3^+
e + CH3 => e + e + H + CH2^+		! f28 * Bolsig+ CH3 -> H CH2^+
e + CH3 => e + e + H2 + CH^+		! f29 * Bolsig+ CH3 -> H2 CH^+
e + CH2 => e + e + CH2^+		! f30 * Bolsig+ CH2 -> CH2^+
e + CH2 => e + e + H + CH^+		! f31 * Bolsig+ CH2 -> H CH^+
e + CH => e + e + CH^+		! f32 * Bolsig+ CH -> CH^+
e + C2H6 => e + C2H5 + H		! f33 * Bolsig+ C2H6 -> C2H5 H
e + C2H6(v24) => e + C2H5 + H		! f33 * Bolsig+ C2H6(v24) -> C2H5 H
e + C2H6(v13) => e + C2H5 + H		! f33 * Bolsig+ C2H6(v13) -> C2H5 H
e + C2H6 => e + C2H4 + H2		! f34 * Bolsig+ C2H6 -> C2H4 H2
e + C2H6(v24) => e + C2H4 + H2		! f34 * Bolsig+ C2H6(v24) -> C2H4 H2
e + C2H6(v13) => e + C2H4 + H2		! f34 * Bolsig+ C2H6(v13) -> C2H4 H2
e + C2H6 => e + C2H3 + H2 + H		! f35 * Bolsig+ C2H6 -> C2H3 H2 H
e + C2H6(v24) => e + C2H3 + H2 + H		! f35 * Bolsig+ C2H6(v24) -> C2H3 H2 H
e + C2H6(v13) => e + C2H3 + H2 + H		! f35 * Bolsig+ C2H6(v13) -> C2H3 H2 H
e + C2H6 => e + C2H2 + H2 + H2		! f36 * Bolsig+ C2H6 -> C2H2 H2 H2
e + C2H6(v24) => e + C2H2 + H2 + H2		! f36 * Bolsig+ C2H6(v24) -> C2H2 H2 H2
e + C2H6(v13) => e + C2H2 + H2 + H2		! f36 * Bolsig+ C2H6(v13) -> C2H2 H2 H2
e + C2H6 => e + CH4 + CH2		! f37 * Bolsig+ C2H6 -> CH4 CH2
e + C2H6(v24) => e + CH4 + CH2		! f37 * Bolsig+ C2H6(v24) -> CH4 CH2
e + C2H6(v13) => e + CH4 + CH2		! f37 * Bolsig+ C2H6(v13) -> CH4 CH2
e + C2H6 => e + CH3 + CH3		! f38 * Bolsig+ C2H6 -> CH3 CH3
e + C2H6(v24) => e + CH3 + CH3		! f38 * Bolsig+ C2H6(v24) -> CH3 CH3
e + C2H6(v13) => e + CH3 + CH3		! f38 * Bolsig+ C2H6(v13) -> CH3 CH3
e + C2H5 => e + C2H4 + H		! f39 * Bolsig+ C2H5 -> C2H4 H
e + C2H5 => e + C2H3 + H2		! f40 * Bolsig+ C2H5 -> C2H3 H2
e + C2H5 => e + C2H3 + H + H		! f41 * Bolsig+ C2H5 -> C2H3 H H
e + C2H5 => e + C2H2 + H2 + H		! f42 * Bolsig+ C2H5 -> C2H2 H2 H
e + C2H5 => e + CH4 + CH		! f43 * Bolsig+ C2H5 -> CH4 CH
e + C2H5 => e + CH3 + CH2		! f44 * Bolsig+ C2H5 -> CH3 CH2
e + C2H4 => e + C2H3 + H		! f45 * Bolsig+ C2H4 -> C2H3 H
e + C2H4(v1) => e + C2H3 + H		! f45 * Bolsig+ C2H4(v1) -> C2H3 H
e + C2H4(v2) => e + C2H3 + H		! f45 * Bolsig+ C2H4(v2) -> C2H3 H
e + C2H4 => e + C2H2 + H2		! f46 * Bolsig+ C2H4 -> C2H2 H2
e + C2H4(v1) => e + C2H2 + H2		! f46 * Bolsig+ C2H4(v1) -> C2H2 H2
e + C2H4(v2) => e + C2H2 + H2		! f46 * Bolsig+ C2H4(v2) -> C2H2 H2
e + C2H4 => e + C2H2 + H + H		! f47 * Bolsig+ C2H4 -> C2H2 H H
e + C2H4(v1) => e + C2H2 + H + H		! f47 * Bolsig+ C2H4(v1) -> C2H2 H H
e + C2H4(v2) => e + C2H2 + H + H		! f47 * Bolsig+ C2H4(v2) -> C2H2 H H
e + C2H4 => e + CH3 + CH		! f48 * Bolsig+ C2H4 -> CH3 CH
e + C2H4(v1) => e + CH3 + CH		! f48 * Bolsig+ C2H4(v1) -> CH3 CH
e + C2H4(v2) => e + CH3 + CH		! f48 * Bolsig+ C2H4(v2) -> CH3 CH
e + C2H4 => e + CH2 + CH2		! f49 * Bolsig+ C2H4 -> CH2 CH2
e + C2H4(v1) => e + CH2 + CH2		! f49 * Bolsig+ C2H4(v1) -> CH2 CH2
e + C2H4(v2) => e + CH2 + CH2		! f49 * Bolsig+ C2H4(v2) -> CH2 CH2
e + C2H3 => e + C2H2 + H		! f50 * Bolsig+ C2H3 -> C2H2 H
e + C2H3 => e + CH2 + CH		! f51 * Bolsig+ C2H3 -> CH2 CH
e + C2H2 => e + CH + CH		! f52 * Bolsig+ C2H2 -> CH CH
e + C2H2(v5) => e + CH + CH		! f52 * Bolsig+ C2H2(v5) -> CH CH
e + C2H2(v2) => e + CH + CH		! f52 * Bolsig+ C2H2(v2) -> CH CH
e + C2H2(v13) => e + CH + CH		! f52 * Bolsig+ C2H2(v13) -> CH CH
e + C2H6 => e + e + C2H6^+		! f53 * Bolsig+ C2H6 -> C2H6^+
e + C2H6(v24) => e + e + C2H6^+		! f53 * Bolsig+ C2H6(v24) -> C2H6^+
e + C2H6(v13) => e + e + C2H6^+		! f53 * Bolsig+ C2H6(v13) -> C2H6^+
e + C2H6 => e + e + H + C2H5^+		! f54 * Bolsig+ C2H6 -> H C2H5^+
e + C2H6(v24) => e + e + H + C2H5^+		! f54 * Bolsig+ C2H6(v24) -> H C2H5^+
e + C2H6(v13) => e + e + H + C2H5^+		! f54 * Bolsig+ C2H6(v13) -> H C2H5^+
e + C2H6 => e + e + H2 + C2H4^+		! f55 * Bolsig+ C2H6 -> H2 C2H4^+
e + C2H6(v24) => e + e + H2 + C2H4^+		! f55 * Bolsig+ C2H6(v24) -> H2 C2H4^+
e + C2H6(v13) => e + e + H2 + C2H4^+		! f55 * Bolsig+ C2H6(v13) -> H2 C2H4^+
e + C2H6 => e + e + H2 + H + C2H3^+		! f56 * Bolsig+ C2H6 -> H2 H C2H3^+
e + C2H6(v24) => e + e + H2 + H + C2H3^+		! f56 * Bolsig+ C2H6(v24) -> H2 H C2H3^+
e + C2H6(v13) => e + e + H2 + H + C2H3^+		! f56 * Bolsig+ C2H6(v13) -> H2 H C2H3^+
e + C2H6 => e + e + H2 + H2 + C2H2^+		! f57 * Bolsig+ C2H6 -> H2 H2 C2H2^+
e + C2H6(v24) => e + e + H2 + H2 + C2H2^+		! f57 * Bolsig+ C2H6(v24) -> H2 H2 C2H2^+
e + C2H6(v13) => e + e + H2 + H2 + C2H2^+		! f57 * Bolsig+ C2H6(v13) -> H2 H2 C2H2^+
e + C2H6 => e + e + CH3 + CH3^+		! f58 * Bolsig+ C2H6 -> CH3 CH3^+
e + C2H6(v24) => e + e + CH3 + CH3^+		! f58 * Bolsig+ C2H6(v24) -> CH3 CH3^+
e + C2H6(v13) => e + e + CH3 + CH3^+		! f58 * Bolsig+ C2H6(v13) -> CH3 CH3^+
e + C2H6 => e + e + CH4 + CH2^+		! f59 * Bolsig+ C2H6 -> CH4 CH2^+
e + C2H6(v24) => e + e + CH4 + CH2^+		! f59 * Bolsig+ C2H6(v24) -> CH4 CH2^+
e + C2H6(v13) => e + e + CH4 + CH2^+		! f59 * Bolsig+ C2H6(v13) -> CH4 CH2^+
e + C2H5 => e + e + C2H5^+		! f60 * Bolsig+ C2H5 -> C2H5^+
e + C2H5 => e + e + H + C2H4^+		! f61 * Bolsig+ C2H5 -> H C2H4^+
e + C2H5 => e + e + H2 + C2H3^+		! f62 * Bolsig+ C2H5 -> H2 C2H3^+
e + C2H5 => e + e + H2 + H + C2H2^+		! f63 * Bolsig+ C2H5 -> H2 H C2H2^+
e + C2H5 => e + e + CH2 + CH3^+		! f64 * Bolsig+ C2H5 -> CH2 CH3^+
e + C2H5 => e + e + CH3 + CH2^+		! f65 * Bolsig+ C2H5 -> CH3 CH2^+
e + C2H5 => e + e + CH4 + CH^+		! f66 * Bolsig+ C2H5 -> CH4 CH^+
e + C2H4 => e + e + C2H4^+		! f67 * Bolsig+ C2H4 -> C2H4^+
e + C2H4(v1) => e + e + C2H4^+		! f67 * Bolsig+ C2H4(v1) -> C2H4^+
e + C2H4(v2) => e + e + C2H4^+		! f67 * Bolsig+ C2H4(v2) -> C2H4^+
e + C2H4 => e + e + H + C2H3^+		! f68 * Bolsig+ C2H4 -> H C2H3^+
e + C2H4(v1) => e + e + H + C2H3^+		! f68 * Bolsig+ C2H4(v1) -> H C2H3^+
e + C2H4(v2) => e + e + H + C2H3^+		! f68 * Bolsig+ C2H4(v2) -> H C2H3^+
e + C2H4 => e + e + CH + CH3^+		! f69 * Bolsig+ C2H4 -> CH CH3^+
e + C2H4(v1) => e + e + CH + CH3^+		! f69 * Bolsig+ C2H4(v1) -> CH CH3^+
e + C2H4(v2) => e + e + CH + CH3^+		! f69 * Bolsig+ C2H4(v2) -> CH CH3^+
e + C2H4 => e + e + CH2 + CH2^+		! f70 * Bolsig+ C2H4 -> CH2 CH2^+
e + C2H4(v1) => e + e + CH2 + CH2^+		! f70 * Bolsig+ C2H4(v1) -> CH2 CH2^+
e + C2H4(v2) => e + e + CH2 + CH2^+		! f70 * Bolsig+ C2H4(v2) -> CH2 CH2^+
e + C2H4 => e + e + CH3 + CH^+		! f71 * Bolsig+ C2H4 -> CH3 CH^+
e + C2H4(v1) => e + e + CH3 + CH^+		! f71 * Bolsig+ C2H4(v1) -> CH3 CH^+
e + C2H4(v2) => e + e + CH3 + CH^+		! f71 * Bolsig+ C2H4(v2) -> CH3 CH^+
e + C2H3 => e + e + C2H3^+		! f72 * Bolsig+ C2H3 -> C2H3^+
e + C2H3 => e + e + H + C2H2^+		! f73 * Bolsig+ C2H3 -> H C2H2^+
e + C2H3 => e + e + CH + CH2^+		! f74 * Bolsig+ C2H3 -> CH CH2^+
e + C2H3 => e + e + CH2 + CH^+		! f75 * Bolsig+ C2H3 -> CH2 CH^+
e + C2H3 => e + e + C2H2 + H^+		! f76 * Bolsig+ C2H3 -> C2H2 H^+
e + C2H2 => e + e + C2H2^+		! f77 * Bolsig+ C2H2 -> C2H2^+
e + C2H2(v5) => e + e + C2H2^+		! f77 * Bolsig+ C2H2(v5) -> C2H2^+
e + C2H2(v2) => e + e + C2H2^+		! f77 * Bolsig+ C2H2(v2) -> C2H2^+
e + C2H2(v13) => e + e + C2H2^+		! f77 * Bolsig+ C2H2(v13) -> C2H2^+
e + C2H2 => e + e + CH + CH^+		! f78 * Bolsig+ C2H2 -> CH CH^+
e + C2H2(v5) => e + e + CH + CH^+		! f78 * Bolsig+ C2H2(v5) -> CH CH^+
e + C2H2(v2) => e + e + CH + CH^+		! f78 * Bolsig+ C2H2(v2) -> CH CH^+
e + C2H2(v13) => e + e + CH + CH^+		! f78 * Bolsig+ C2H2(v13) -> CH CH^+
e + C3H8 => e + C3H7 + H		! f79 * Bolsig+ C3H8 -> C3H7 H
e + C3H8(v1) => e + C3H7 + H		! f79 * Bolsig+ C3H8(v1) -> C3H7 H
e + C3H8(v2) => e + C3H7 + H		! f79 * Bolsig+ C3H8(v2) -> C3H7 H
e + C3H8 => e + C3H6 + H2		! f80 * Bolsig+ C3H8 -> C3H6 H2
e + C3H8(v1) => e + C3H6 + H2		! f80 * Bolsig+ C3H8(v1) -> C3H6 H2
e + C3H8(v2) => e + C3H6 + H2		! f80 * Bolsig+ C3H8(v2) -> C3H6 H2
e + C3H7 => e + C3H6 + H		! f81 * Bolsig+ C3H7 -> C3H6 H
e + C3H8 => e + e + C3H8^+		! f82 * Bolsig+ C3H8 -> C3H8^+
e + C3H8(v1) => e + e + C3H8^+		! f82 * Bolsig+ C3H8(v1) -> C3H8^+
e + C3H8(v2) => e + e + C3H8^+		! f82 * Bolsig+ C3H8(v2) -> C3H8^+
e + C3H8 => e + e + H + C3H7^+		! f83 * Bolsig+ C3H8 -> H C3H7^+
e + C3H8(v1) => e + e + H + C3H7^+		! f83 * Bolsig+ C3H8(v1) -> H C3H7^+
e + C3H8(v2) => e + e + H + C3H7^+		! f83 * Bolsig+ C3H8(v2) -> H C3H7^+
e + C3H8 => e + e + H2 + C3H6^+		! f84 * Bolsig+ C3H8 -> H2 C3H6^+
e + C3H8(v1) => e + e + H2 + C3H6^+		! f84 * Bolsig+ C3H8(v1) -> H2 C3H6^+
e + C3H8(v2) => e + e + H2 + C3H6^+		! f84 * Bolsig+ C3H8(v2) -> H2 C3H6^+
e + C3H7 => e + e + C3H7^+		! f85 * Bolsig+ C3H7 -> C3H7^+
e + C3H7 => e + e + H + C3H6^+		! f86 * Bolsig+ C3H7 -> H C3H6^+
e + C3H6 => e + e + C3H6^+		! f87 * Bolsig+ C3H6 -> C3H6^+
e + C3H6(v) => e + e + C3H6^+		! f87 * Bolsig+ C3H6(v) -> C3H6^+
e + C3H6 => e + C2H2 + CH4		! f88 * Bolsig+ C3H6 -> C2H2 CH4
e + C3H6(v) => e + C2H2 + CH4		! f88 * Bolsig+ C3H6(v) -> C2H2 CH4
e + C3H6 => e + e + C2H2 + CH4^+		! f89 * Bolsig+ C3H6 -> C2H2 CH4^+
e + C3H6(v) => e + e + C2H2 + CH4^+		! f89 * Bolsig+ C3H6(v) -> C2H2 CH4^+

# Ion Recombination Reaction
e + e + CH^+ => e + CH		! f90 * 1.00d0
e + e + CH2^+ => e + CH2		! f91 * 1.00d0
e + e + CH3^+ => e + CH3		! f92 * 1.00d0
e + e + CH4^+ => e + CH4		! f93 * 1.00d0
e + e + C2H2^+ => e + C2H2		! f94 * 1.00d0
e + e + C2H3^+ => e + C2H3		! f95 * 1.00d0
e + e + C2H4^+ => e + C2H4		! f96 * 1.00d0
e + e + C2H5^+ => e + C2H5		! f97 * 1.00d0
e + e + C2H6^+ => e + C2H6		! f98 * 1.00d0
e + e + C3H6^+ => e + C3H6		! f99 * 1.00d0
e + e + C3H7^+ => e + C3H7		! f100 * 1.00d0
e + e + C3H8^+ => e + C3H8		! f101 * 1.00d0

# Gas Phase Reaction
e + CH4^+ => CH3 + H		! f102 * 1.18d-08 * (300./Tgas)**0.5
e + CH4^+ => CH2 + H + H		! f103 * 2.42d-08 * (300./Tgas)**0.5
e + CH4^+ => CH + H2 + H		! f104 * 1.41d-08 * (300./Tgas)**0.5
e + CH3^+ => CH2 + H		! f105 * 2.25d-08 * (300./Tgas)**0.5
e + CH3^+ => CH + H2		! f106 * 7.88d-09 * (300./Tgas)**0.5
e + CH3^+ => CH + H + H		! f107 * 9.00d-09 * (300./Tgas)**0.5
e + CH3^+ => C + H2 + H		! f108 * 1.69d-08 * (300./Tgas)**0.5
e + CH2^+ => CH + H		! f109 * 1.00d-08 * (300./Tgas)**0.5
e + CH2^+ => C + H2		! f110 * 4.82d-09 * (300./Tgas)**0.5
e + CH2^+ => C + H + H		! f111 * 2.53d-08 * (300./Tgas)**0.5
e + CH^+ => C + H		! f112 * 3.23d-08 * (300./Tgas)**0.42
e + C2H6^+ => C2H5 + H		! f113 * 2.19d-08 * (300./Tgas)**0.71
e + C2H6^+ => C2H4 + H + H		! f114 * 3.36d-08 * (300./Tgas)**0.71
e + C2H5^+ => C2H4 + H		! f115 * 7.70d-09 * (300./Tgas)**0.71
e + C2H5^+ => C2H3 + H + H		! f116 * 1.92d-08 * (300./Tgas)**0.71
e + C2H5^+ => C2H2 + H2 + H		! f117 * 1.60d-08 * (300./Tgas)**0.71
e + C2H5^+ => C2H2 + H + H + H		! f118 * 8.98d-09 * (300./Tgas)**0.71
e + C2H5^+ => CH3 + CH2		! f119 * 9.62d-09 * (300./Tgas)**0.71
e + C2H4^+ => C2H3 + H		! f120 * 8.29d-09 * (300./Tgas)**0.71
e + C2H4^+ => C2H2 + H + H		! f121 * 3.43d-08 * (300./Tgas)**0.71
e + C2H3^+ => C2H2 + H		! f122 * 1.34d-08 * (300./Tgas)**0.71
e + C2H2^+ => CH + CH		! f123 * 4.87d-09 * (300./Tgas)**0.71
e + H2^+ => H + H		! f124 * 3.17d21/(6.022d23 * Te**4.5)
e + H3^+ => H + H2		! f125 * 3.17d21/(6.022d23 * Te**4.5)
H2 + H2^+ => H + H3^+		! f126 * 2.11d-09
C2H6 + CH4^+ => CH4 + H2 + C2H4^+		! f127 * 1.91d-9
C2H6(v24) + CH4^+ => CH4 + H2 + C2H4^+		! f127 * 1.91d-9
C2H6(v13) + CH4^+ => CH4 + H2 + C2H4^+		! f127 * 1.91d-9
C2H4 + CH4^+ => CH3 + C2H5^+		! f128 * 4.23d-10