ELEMENTS
e C H
END

SPECIES
e C CH CH^+ CH2 CH2^+ CH3 CH3^+ CH4 CH4(v13) CH4(v24) CH4^+ C2H2 C2H2(v13) C2H2(v2) C2H2(v5) C2H2^+ C2H3 C2H3^+ C2H4 C2H4(v1) C2H4(v2) C2H4^+ C2H5 C2H5^+
C2H6 C2H6(v13) C2H6(v24) C2H6^+ C3H5 C3H6 C3H6(v) C3H6^+ C3H7 C3H7^+ C3H8 C3H8(v1) C3H8(v2) C3H8^+ C4H9 C4H9H C2H C5H12 H H2 H2^+ H3^+ H^+
END

BOLSIG
CH CH2 CH3 CH4 CH4(v13) CH4(v24) C2H2 C2H2(v13) C2H2(v2) C2H2(v5) C2H3 C2H4 C2H4(v1) C2H4(v2) C2H5 C2H6 C2H6(v13) C2H6(v24) C3H6 C3H6(v) C3H7 C3H8 C3H8(v1) C3H8(v2)
END

REACTIONS
# Gas Constant
$ double precision, parameter :: R = 8.314d-3

# Compensation Parameters
$ double precision, parameter :: f0 = 1.3375d-8
$ double precision, parameter :: f1 = 4.5814d-5
$ double precision, parameter :: f2 = 1.1665d+1
$ double precision, parameter :: f3 = 7.8953d+1
$ double precision, parameter :: f4 = 9.5607d+1
$ double precision, parameter :: f5 = 9.1575d-6
$ double precision, parameter :: f6 = 3.7436d-6
$ double precision, parameter :: f7 = 2.3055d-3
$ double precision, parameter :: f8 = 1.4979d-6
$ double precision, parameter :: f9 = 2.7349d-7
$ double precision, parameter :: f10 = 4.7552d-3
$ double precision, parameter :: f11 = 1.7871d-1
$ double precision, parameter :: f12 = 9.9149d0
$ double precision, parameter :: f13 = 3.9471d-3
$ double precision, parameter :: f14 = 2.0564d-1
$ double precision, parameter :: f15 = 1.3967d-5
$ double precision, parameter :: f16 = 4.0807d-8
$ double precision, parameter :: f17 = 2.6184d-3
$ double precision, parameter :: f18 = 6.2222d-7
$ double precision, parameter :: f19 = 2.9900d-7
$ double precision, parameter :: f20 = 7.1163d+2
$ double precision, parameter :: f21 = 1.5336d-6
$ double precision, parameter :: f22 = 9.0420d-4
$ double precision, parameter :: f23 = 4.5939d-4
$ double precision, parameter :: f24 = 1.4007d-8
$ double precision, parameter :: f25 = 4.6054d-4
$ double precision, parameter :: f26 = 1.8409d0
$ double precision, parameter :: f27 = 3.4865d-5
$ double precision, parameter :: f28 = 5.2668d+1
$ double precision, parameter :: f29 = 5.0390d-5
$ double precision, parameter :: f30 = 8.9059d-1
$ double precision, parameter :: f31 = 5.6934d-8
$ double precision, parameter :: f32 = 4.1672d+2
$ double precision, parameter :: f33 = 5.2689d+1
$ double precision, parameter :: f34 = 1.4122d-8
$ double precision, parameter :: f35 = 5.7944d-7
$ double precision, parameter :: f36 = 3.4232d-1
$ double precision, parameter :: f37 = 1.0306d-5
$ double precision, parameter :: f38 = 2.6604d-2
$ double precision, parameter :: f39 = 3.0575d-1
$ double precision, parameter :: f40 = 3.2162d-4
$ double precision, parameter :: f41 = 1.9557d-8
$ double precision, parameter :: f42 = 9.0340d-4
$ double precision, parameter :: f43 = 4.5862d-8
$ double precision, parameter :: f44 = 3.1274d-2
$ double precision, parameter :: f45 = 2.2607d-3
$ double precision, parameter :: f46 = 8.0701d-4
$ double precision, parameter :: f47 = 2.0470d+1
$ double precision, parameter :: f48 = 2.4000d-4
$ double precision, parameter :: f49 = 1.0111d0
$ double precision, parameter :: f50 = 1.7760d+1
$ double precision, parameter :: f51 = 2.3109d-4
$ double precision, parameter :: f52 = 1.2315d-6
$ double precision, parameter :: f53 = 7.7310d0
$ double precision, parameter :: f54 = 1.0211d-8
$ double precision, parameter :: f55 = 1.9848d-6
$ double precision, parameter :: f56 = 1.5477d0
$ double precision, parameter :: f57 = 2.1505d+2
$ double precision, parameter :: f58 = 2.1721d-6
$ double precision, parameter :: f59 = 4.5182d-2
$ double precision, parameter :: f60 = 5.5106d-6
$ double precision, parameter :: f61 = 5.9160d+2
$ double precision, parameter :: f62 = 4.6154d-5
$ double precision, parameter :: f63 = 1.5333d-6
$ double precision, parameter :: f64 = 4.0671d+2
$ double precision, parameter :: f65 = 5.7100d-5
$ double precision, parameter :: f66 = 1.0458d-4
$ double precision, parameter :: f67 = 1.2316d-5
$ double precision, parameter :: f68 = 3.7374d+2
$ double precision, parameter :: f69 = 2.6983d-3
$ double precision, parameter :: f70 = 2.2506d+2
$ double precision, parameter :: f71 = 2.0245d+1
$ double precision, parameter :: f72 = 1.8755d-5
$ double precision, parameter :: f73 = 1.0730d-7
$ double precision, parameter :: f74 = 7.4114d-8
$ double precision, parameter :: f75 = 9.5287d-3
$ double precision, parameter :: f76 = 1.6119d+1
$ double precision, parameter :: f77 = 1.1682d-5
$ double precision, parameter :: f78 = 5.0475d-8
$ double precision, parameter :: f79 = 2.6772d-6
$ double precision, parameter :: f80 = 1.8663d-3
$ double precision, parameter :: f81 = 7.2412d-3
$ double precision, parameter :: f82 = 1.9312d+1
$ double precision, parameter :: f83 = 5.7790d+1
$ double precision, parameter :: f84 = 5.2272d-2
$ double precision, parameter :: f85 = 4.3382d-7
$ double precision, parameter :: f86 = 1.9935d-5
$ double precision, parameter :: f87 = 2.7944d0
$ double precision, parameter :: f88 = 6.9339d+2
$ double precision, parameter :: f89 = 1.6498d0
$ double precision, parameter :: f90 = 2.2550d-3
$ double precision, parameter :: f91 = 3.4108d-5
$ double precision, parameter :: f92 = 8.8378d+1
$ double precision, parameter :: f93 = 1.7602d-7
$ double precision, parameter :: f94 = 2.1325d-6
$ double precision, parameter :: f95 = 1.5233d-1
$ double precision, parameter :: f96 = 3.5343d-1
$ double precision, parameter :: f97 = 7.4173d+2
$ double precision, parameter :: f98 = 1.4976d+2
$ double precision, parameter :: f99 = 1.6601d-7
$ double precision, parameter :: f100 = 1.2068d-4
$ double precision, parameter :: f101 = 1.4795d-1
$ double precision, parameter :: f102 = 2.5344d+1
$ double precision, parameter :: f103 = 2.7771d-4
$ double precision, parameter :: f104 = 1.3003d-2
$ double precision, parameter :: f105 = 3.7660d+1
$ double precision, parameter :: f106 = 7.8474d+2
$ double precision, parameter :: f107 = 5.4239d+2
$ double precision, parameter :: f108 = 9.9036d-1
$ double precision, parameter :: f109 = 9.0373d+2
$ double precision, parameter :: f110 = 2.5800d-6
$ double precision, parameter :: f111 = 9.4211d-4
$ double precision, parameter :: f112 = 2.8854d0
$ double precision, parameter :: f113 = 1.0089d0
$ double precision, parameter :: f114 = 8.0644d-5
$ double precision, parameter :: f115 = 2.7815d-4
$ double precision, parameter :: f116 = 1.3344d-1
$ double precision, parameter :: f117 = 6.1251d-7
$ double precision, parameter :: f118 = 5.7768d+1
$ double precision, parameter :: f119 = 1.9303d-5
$ double precision, parameter :: f120 = 5.6464d+2
$ double precision, parameter :: f121 = 8.8928d-4
$ double precision, parameter :: f122 = 1.0983d-7
$ double precision, parameter :: f123 = 1.1174d-2
$ double precision, parameter :: f124 = 1.5710d0
$ double precision, parameter :: f125 = 4.9123d-2
$ double precision, parameter :: f126 = 8.1574d-8
$ double precision, parameter :: f127 = 3.5398d+1
$ double precision, parameter :: f128 = 3.9517d-8
$ double precision, parameter :: f129 = 2.4531d-6
$ double precision, parameter :: f130 = 1.1170d-2
$ double precision, parameter :: f131 = 3.3889d-1
$ double precision, parameter :: f132 = 2.9214d-8
$ double precision, parameter :: f133 = 8.2693d0
$ double precision, parameter :: f134 = 6.8850d-2
$ double precision, parameter :: f135 = 6.1493d-5
$ double precision, parameter :: f136 = 2.4358d+2
$ double precision, parameter :: f137 = 1.3709d0
$ double precision, parameter :: f138 = 1.0825d-5
$ double precision, parameter :: f139 = 1.8094d-8
$ double precision, parameter :: f140 = 4.0529d-3
$ double precision, parameter :: f141 = 2.7813d-6
$ double precision, parameter :: f142 = 1.1124d-4
$ double precision, parameter :: f143 = 2.0405d-6
$ double precision, parameter :: f144 = 8.3610d+1
$ double precision, parameter :: f145 = 1.8614d-4
$ double precision, parameter :: f146 = 1.3659d-6
$ double precision, parameter :: f147 = 2.9310d-5
$ double precision, parameter :: f148 = 4.3738d-7
$ double precision, parameter :: f149 = 4.1571d-8
$ double precision, parameter :: f150 = 1.7078d0
$ double precision, parameter :: f151 = 9.4624d-8
$ double precision, parameter :: f152 = 3.2232d-5
$ double precision, parameter :: f153 = 9.8731d+2
$ double precision, parameter :: f154 = 1.1218d-1
$ double precision, parameter :: f155 = 3.1748d+2
$ double precision, parameter :: f156 = 2.7382d+2
$ double precision, parameter :: f157 = 1.7732d+1
$ double precision, parameter :: f158 = 3.0656d+2
$ double precision, parameter :: f159 = 6.0279d-1
$ double precision, parameter :: f160 = 2.9857d-6
$ double precision, parameter :: f161 = 7.1384d0
$ double precision, parameter :: f162 = 1.1391d-4
$ double precision, parameter :: f163 = 4.0239d-3
$ double precision, parameter :: f164 = 2.4337d+1
$ double precision, parameter :: f165 = 6.0157d-6
$ double precision, parameter :: f166 = 2.1422d+1
$ double precision, parameter :: f167 = 4.3219d-1
$ double precision, parameter :: f168 = 2.1684d-1
$ double precision, parameter :: f169 = 5.5558d-4
$ double precision, parameter :: f170 = 2.5059d-5
$ double precision, parameter :: f171 = 6.2203d+1
$ double precision, parameter :: f172 = 3.7071d-4
$ double precision, parameter :: f173 = 1.9632d-1
$ double precision, parameter :: f174 = 8.1491d-4
$ double precision, parameter :: f175 = 1.4168d-7
$ double precision, parameter :: f176 = 1.8900d+2
$ double precision, parameter :: f177 = 3.5575d+1
$ double precision, parameter :: f178 = 4.5697d-7
$ double precision, parameter :: f179 = 3.3633d-5
$ double precision, parameter :: f180 = 1.0675d-6
$ double precision, parameter :: f181 = 1.0867d-7
$ double precision, parameter :: f182 = 1.9620d-6
$ double precision, parameter :: f183 = 5.7905d-3
$ double precision, parameter :: f184 = 1.0105d-3
$ double precision, parameter :: f185 = 1.5761d-8
$ double precision, parameter :: f186 = 2.2523d-2
$ double precision, parameter :: f187 = 4.2844d+1
$ double precision, parameter :: f188 = 6.3390d-6
$ double precision, parameter :: f189 = 6.6899d-2
$ double precision, parameter :: f190 = 1.1937d-3
$ double precision, parameter :: f191 = 7.6827d-5
$ double precision, parameter :: f192 = 6.4356d-1
$ double precision, parameter :: f193 = 1.1656d-4
$ double precision, parameter :: f194 = 8.3381d-3
$ double precision, parameter :: f195 = 8.5152d-4
$ double precision, parameter :: f196 = 1.3406d+2
$ double precision, parameter :: f197 = 2.0981d-2
$ double precision, parameter :: f198 = 3.3305d-2
$ double precision, parameter :: f199 = 2.5989d-4
$ double precision, parameter :: f200 = 5.1596d+2
$ double precision, parameter :: f201 = 3.4236d-2
$ double precision, parameter :: f202 = 6.8734d-6
$ double precision, parameter :: f203 = 6.4673d-4
$ double precision, parameter :: f204 = 1.3463d-7
$ double precision, parameter :: f205 = 3.3981d0
$ double precision, parameter :: f206 = 5.8859d-3
$ double precision, parameter :: f207 = 4.8853d-3
$ double precision, parameter :: f208 = 3.7872d+2
$ double precision, parameter :: f209 = 2.3303d-3
$ double precision, parameter :: f210 = 5.9287d+2
$ double precision, parameter :: f211 = 1.7497d-3
$ double precision, parameter :: f212 = 1.2632d-3
$ double precision, parameter :: f213 = 3.6361d-7
$ double precision, parameter :: f214 = 1.8684d-5
$ double precision, parameter :: f215 = 9.0095d-6
$ double precision, parameter :: f216 = 4.6195d-5
$ double precision, parameter :: f217 = 9.6674d-4
$ double precision, parameter :: f218 = 1.5077d-6
$ double precision, parameter :: f219 = 3.3428d-1
$ double precision, parameter :: f220 = 3.0633d-5
$ double precision, parameter :: f221 = 9.2510d-5
$ double precision, parameter :: f222 = 1.2533d+1
$ double precision, parameter :: f223 = 1.9481d-2
$ double precision, parameter :: f224 = 5.0374d-8
$ double precision, parameter :: f225 = 1.7417d-3
$ double precision, parameter :: f226 = 9.6378d-8
$ double precision, parameter :: f227 = 1.4476d+2
$ double precision, parameter :: f228 = 1.0374d0
$ double precision, parameter :: f229 = 2.8075d-4
$ double precision, parameter :: f230 = 2.3834d+1
$ double precision, parameter :: f231 = 1.1736d-2
$ double precision, parameter :: f232 = 2.0714d-4
$ double precision, parameter :: f233 = 5.6697d-7
$ double precision, parameter :: f234 = 4.7685d+1
$ double precision, parameter :: f235 = 2.7049d-1
$ double precision, parameter :: f236 = 1.2242d-8
$ double precision, parameter :: f237 = 2.0294d-5
$ double precision, parameter :: f238 = 1.9332d-3
$ double precision, parameter :: f239 = 1.1754d-2
$ double precision, parameter :: f240 = 4.5111d0
$ double precision, parameter :: f241 = 2.0751d-8
$ double precision, parameter :: f242 = 8.0721d-3
$ double precision, parameter :: f243 = 1.3916d-2
$ double precision, parameter :: f244 = 4.1414d-4
$ double precision, parameter :: f245 = 2.5125d-6
$ double precision, parameter :: f246 = 5.8087d-4
$ double precision, parameter :: f247 = 2.9117d-8
$ double precision, parameter :: f248 = 1.6608d-5
$ double precision, parameter :: f249 = 7.7924d-4
$ double precision, parameter :: f250 = 1.1726d-5
$ double precision, parameter :: f251 = 3.9325d-8
$ double precision, parameter :: f252 = 2.3907d+1
$ double precision, parameter :: f253 = 1.3275d-7
$ double precision, parameter :: f254 = 2.2116d-5
$ double precision, parameter :: f255 = 3.5726d-4
$ double precision, parameter :: f256 = 1.1964d0
$ double precision, parameter :: f257 = 3.9514d-2
$ double precision, parameter :: f258 = 2.0835d+1
$ double precision, parameter :: f259 = 1.3061d+2
$ double precision, parameter :: f260 = 1.6936d-3
$ double precision, parameter :: f261 = 6.8191d-2
$ double precision, parameter :: f262 = 4.6479d-7
$ double precision, parameter :: f263 = 2.4760d+1
$ double precision, parameter :: f264 = 5.0135d-2
$ double precision, parameter :: f265 = 1.5648d-6
$ double precision, parameter :: f266 = 3.1880d0
$ double precision, parameter :: f267 = 6.1263d-3
$ double precision, parameter :: f268 = 1.1817d-1
$ double precision, parameter :: f269 = 8.3027d-7
$ double precision, parameter :: f270 = 7.6161d-4
$ double precision, parameter :: f271 = 2.3184d-5
$ double precision, parameter :: f272 = 1.6672d+2
$ double precision, parameter :: f273 = 8.4858d-4
$ double precision, parameter :: f274 = 8.4569d-5
$ double precision, parameter :: f275 = 1.0072d+2
$ double precision, parameter :: f276 = 4.3353d-4
$ double precision, parameter :: f277 = 1.2193d-8
$ double precision, parameter :: f278 = 4.8444d-5
$ double precision, parameter :: f279 = 6.1564d+1
$ double precision, parameter :: f280 = 2.0301d-2
$ double precision, parameter :: f281 = 3.8587d-1
$ double precision, parameter :: f282 = 5.9954d-7
$ double precision, parameter :: f283 = 6.7172d-3
$ double precision, parameter :: f284 = 4.3706d-1
$ double precision, parameter :: f285 = 4.6312d-4
$ double precision, parameter :: f286 = 1.2905d-3
$ double precision, parameter :: f287 = 1.2134d+1
$ double precision, parameter :: f288 = 1.4129d-1
$ double precision, parameter :: f289 = 2.7390d+2
$ double precision, parameter :: f290 = 2.4877d+2
$ double precision, parameter :: f291 = 1.6441d-5
$ double precision, parameter :: f292 = 4.4877d+1
$ double precision, parameter :: f293 = 6.3024d-1
$ double precision, parameter :: f294 = 3.6825d-6
$ double precision, parameter :: f295 = 1.1958d-7
$ double precision, parameter :: f296 = 1.2309d0
$ double precision, parameter :: f297 = 2.3639d-3
$ double precision, parameter :: f298 = 2.1382d-1
$ double precision, parameter :: f299 = 3.6139d-7
$ double precision, parameter :: f300 = 6.2290d0
$ double precision, parameter :: f301 = 1.1583d0
$ double precision, parameter :: f302 = 2.5770d-4
$ double precision, parameter :: f303 = 4.7937d-5
$ double precision, parameter :: f304 = 3.8986d-3
$ double precision, parameter :: f305 = 1.5438d-8
$ double precision, parameter :: f306 = 5.2132d+2
$ double precision, parameter :: f307 = 3.1333d-3
$ double precision, parameter :: f308 = 9.3895d+1
$ double precision, parameter :: f309 = 1.8691d-4
$ double precision, parameter :: f310 = 1.0038d-7
$ double precision, parameter :: f311 = 4.4220d-3
$ double precision, parameter :: f312 = 7.4171d-6
$ double precision, parameter :: f313 = 5.3217d-7
$ double precision, parameter :: f314 = 5.3774d-1
$ double precision, parameter :: f315 = 5.8029d-3

# Electron Collision Reaction
e + CH4 => e + CH4(v24)		! f0 * Bolsig+ CH4 -> CH4(v24)
e + CH4 => e + CH4(v13)		! f1 * Bolsig+ CH4 -> CH4(v13)
e + C2H6 => e + C2H6(v24)		! f2 * Bolsig+ C2H6 -> C2H6(v24)
e + C2H6 => e + C2H6(v13)		! f3 * Bolsig+ C2H6 -> C2H6(v13)
e + C2H4 => e + C2H4(v1)		! f4 * Bolsig+ C2H4 -> C2H4(v1)
e + C2H4 => e + C2H4(v2)		! f5 * Bolsig+ C2H4 -> C2H4(v2)
e + C2H2 => e + C2H2(v5)		! f6 * Bolsig+ C2H2 -> C2H2(v5)
e + C2H2 => e + C2H2(v2)		! f7 * Bolsig+ C2H2 -> C2H2(v2)
e + C2H2 => e + C2H2(v13)		! f8 * Bolsig+ C2H2 -> C2H2(v13)
e + C3H8 => e + C3H8(v1)		! f9 * Bolsig+ C3H8 -> C3H8(v1)
e + C3H8 => e + C3H8(v2)		! f10 * Bolsig+ C3H8 -> C3H8(v2)
e + C3H6 => e + C3H6(v)		! f11 * Bolsig+ C3H6 -> C3H6(v)
e + CH4 => e + CH3 + H		! f12 * Bolsig+ CH4 -> CH3 H
e + CH4(v24) => e + CH3 + H		! f12 * Bolsig+ CH4(v24) -> CH3 H
e + CH4(v13) => e + CH3 + H		! f12 * Bolsig+ CH4(v13) -> CH3 H
e + CH4 => e + CH2 + H2		! f13 * Bolsig+ CH4 -> CH2 H2
e + CH4(v24) => e + CH2 + H2		! f13 * Bolsig+ CH4(v24) -> CH2 H2
e + CH4(v13) => e + CH2 + H2		! f13 * Bolsig+ CH4(v13) -> CH2 H2
e + CH4 => e + CH + H2 + H		! f14 * Bolsig+ CH4 -> CH H2 H
e + CH4(v24) => e + CH + H2 + H		! f14 * Bolsig+ CH4(v24) -> CH H2 H
e + CH4(v13) => e + CH + H2 + H		! f14 * Bolsig+ CH4(v13) -> CH H2 H
e + CH4 => e + C + H2 + H2		! f15 * Bolsig+ CH4 -> C H2 H2
e + CH4(v24) => e + C + H2 + H2		! f15 * Bolsig+ CH4(v24) -> C H2 H2
e + CH4(v13) => e + C + H2 + H2		! f15 * Bolsig+ CH4(v13) -> C H2 H2
e + CH3 => e + CH2 + H		! f16 * Bolsig+ CH3 -> CH2 H
e + CH3 => e + CH + H2		! f17 * Bolsig+ CH3 -> CH H2
e + CH3 => e + C + H2 + H		! f18 * Bolsig+ CH3 -> C H2 H
e + CH2 => e + CH + H		! f19 * Bolsig+ CH2 -> CH H
e + CH2 => e + C + H2		! f20 * Bolsig+ CH2 -> C H2
e + CH2 => e + C + H + H		! f21 * Bolsig+ CH2 -> C H H
e + CH => e + C + H		! f22 * Bolsig+ CH -> C H
e + CH4 => e + e + CH4^+		! f23 * Bolsig+ CH4 -> CH4^+
e + CH4(v24) => e + e + CH4^+		! f23 * Bolsig+ CH4(v24) -> CH4^+
e + CH4(v13) => e + e + CH4^+		! f23 * Bolsig+ CH4(v13) -> CH4^+
e + CH4 => e + e + H + CH3^+		! f24 * Bolsig+ CH4 -> H CH3^+
e + CH4(v24) => e + e + H + CH3^+		! f24 * Bolsig+ CH4(v24) -> H CH3^+
e + CH4(v13) => e + e + H + CH3^+		! f24 * Bolsig+ CH4(v13) -> H CH3^+
e + CH4 => e + e + H2 + CH2^+		! f25 * Bolsig+ CH4 -> H2 CH2^+
e + CH4(v24) => e + e + H2 + CH2^+		! f25 * Bolsig+ CH4(v24) -> H2 CH2^+
e + CH4(v13) => e + e + H2 + CH2^+		! f25 * Bolsig+ CH4(v13) -> H2 CH2^+
e + CH4 => e + e + H2 + H + CH^+		! f26 * Bolsig+ CH4 -> H2 H CH^+
e + CH4(v24) => e + e + H2 + H + CH^+		! f26 * Bolsig+ CH4(v24) -> H2 H CH^+
e + CH4(v13) => e + e + H2 + H + CH^+		! f26 * Bolsig+ CH4(v13) -> H2 H CH^+
e + CH3 => e + e + CH3^+		! f27 * Bolsig+ CH3 -> CH3^+
e + CH3 => e + e + H + CH2^+		! f28 * Bolsig+ CH3 -> H CH2^+
e + CH3 => e + e + H2 + CH^+		! f29 * Bolsig+ CH3 -> H2 CH^+
e + CH2 => e + e + CH2^+		! f30 * Bolsig+ CH2 -> CH2^+
e + CH2 => e + e + H + CH^+		! f31 * Bolsig+ CH2 -> H CH^+
e + CH => e + e + CH^+		! f32 * Bolsig+ CH -> CH^+
e + C2H6 => e + C2H5 + H		! f33 * Bolsig+ C2H6 -> C2H5 H
e + C2H6(v24) => e + C2H5 + H		! f33 * Bolsig+ C2H6(v24) -> C2H5 H
e + C2H6(v13) => e + C2H5 + H		! f33 * Bolsig+ C2H6(v13) -> C2H5 H
e + C2H6 => e + C2H4 + H2		! f34 * Bolsig+ C2H6 -> C2H4 H2
e + C2H6(v24) => e + C2H4 + H2		! f34 * Bolsig+ C2H6(v24) -> C2H4 H2
e + C2H6(v13) => e + C2H4 + H2		! f34 * Bolsig+ C2H6(v13) -> C2H4 H2
e + C2H6 => e + C2H3 + H2 + H		! f35 * Bolsig+ C2H6 -> C2H3 H2 H
e + C2H6(v24) => e + C2H3 + H2 + H		! f35 * Bolsig+ C2H6(v24) -> C2H3 H2 H
e + C2H6(v13) => e + C2H3 + H2 + H		! f35 * Bolsig+ C2H6(v13) -> C2H3 H2 H
e + C2H6 => e + C2H2 + H2 + H2		! f36 * Bolsig+ C2H6 -> C2H2 H2 H2
e + C2H6(v24) => e + C2H2 + H2 + H2		! f36 * Bolsig+ C2H6(v24) -> C2H2 H2 H2
e + C2H6(v13) => e + C2H2 + H2 + H2		! f36 * Bolsig+ C2H6(v13) -> C2H2 H2 H2
e + C2H6 => e + CH4 + CH2		! f37 * Bolsig+ C2H6 -> CH4 CH2
e + C2H6(v24) => e + CH4 + CH2		! f37 * Bolsig+ C2H6(v24) -> CH4 CH2
e + C2H6(v13) => e + CH4 + CH2		! f37 * Bolsig+ C2H6(v13) -> CH4 CH2
e + C2H6 => e + CH3 + CH3		! f38 * Bolsig+ C2H6 -> CH3 CH3
e + C2H6(v24) => e + CH3 + CH3		! f38 * Bolsig+ C2H6(v24) -> CH3 CH3
e + C2H6(v13) => e + CH3 + CH3		! f38 * Bolsig+ C2H6(v13) -> CH3 CH3
e + C2H5 => e + C2H4 + H		! f39 * Bolsig+ C2H5 -> C2H4 H
e + C2H5 => e + C2H3 + H2		! f40 * Bolsig+ C2H5 -> C2H3 H2
e + C2H5 => e + C2H3 + H + H		! f41 * Bolsig+ C2H5 -> C2H3 H H
e + C2H5 => e + C2H2 + H2 + H		! f42 * Bolsig+ C2H5 -> C2H2 H2 H
e + C2H5 => e + CH4 + CH		! f43 * Bolsig+ C2H5 -> CH4 CH
e + C2H5 => e + CH3 + CH2		! f44 * Bolsig+ C2H5 -> CH3 CH2
e + C2H4 => e + C2H3 + H		! f45 * Bolsig+ C2H4 -> C2H3 H
e + C2H4(v1) => e + C2H3 + H		! f45 * Bolsig+ C2H4(v1) -> C2H3 H
e + C2H4(v2) => e + C2H3 + H		! f45 * Bolsig+ C2H4(v2) -> C2H3 H
e + C2H4 => e + C2H2 + H2		! f46 * Bolsig+ C2H4 -> C2H2 H2
e + C2H4(v1) => e + C2H2 + H2		! f46 * Bolsig+ C2H4(v1) -> C2H2 H2
e + C2H4(v2) => e + C2H2 + H2		! f46 * Bolsig+ C2H4(v2) -> C2H2 H2
e + C2H4 => e + C2H2 + H + H		! f47 * Bolsig+ C2H4 -> C2H2 H H
e + C2H4(v1) => e + C2H2 + H + H		! f47 * Bolsig+ C2H4(v1) -> C2H2 H H
e + C2H4(v2) => e + C2H2 + H + H		! f47 * Bolsig+ C2H4(v2) -> C2H2 H H
e + C2H4 => e + CH3 + CH		! f48 * Bolsig+ C2H4 -> CH3 CH
e + C2H4(v1) => e + CH3 + CH		! f48 * Bolsig+ C2H4(v1) -> CH3 CH
e + C2H4(v2) => e + CH3 + CH		! f48 * Bolsig+ C2H4(v2) -> CH3 CH
e + C2H4 => e + CH2 + CH2		! f49 * Bolsig+ C2H4 -> CH2 CH2
e + C2H4(v1) => e + CH2 + CH2		! f49 * Bolsig+ C2H4(v1) -> CH2 CH2
e + C2H4(v2) => e + CH2 + CH2		! f49 * Bolsig+ C2H4(v2) -> CH2 CH2
e + C2H3 => e + C2H2 + H		! f50 * Bolsig+ C2H3 -> C2H2 H
e + C2H3 => e + CH2 + CH		! f51 * Bolsig+ C2H3 -> CH2 CH
e + C2H2 => e + CH + CH		! f52 * Bolsig+ C2H2 -> CH CH
e + C2H2(v5) => e + CH + CH		! f52 * Bolsig+ C2H2(v5) -> CH CH
e + C2H2(v2) => e + CH + CH		! f52 * Bolsig+ C2H2(v2) -> CH CH
e + C2H2(v13) => e + CH + CH		! f52 * Bolsig+ C2H2(v13) -> CH CH
e + C2H6 => e + e + C2H6^+		! f53 * Bolsig+ C2H6 -> C2H6^+
e + C2H6(v24) => e + e + C2H6^+		! f53 * Bolsig+ C2H6(v24) -> C2H6^+
e + C2H6(v13) => e + e + C2H6^+		! f53 * Bolsig+ C2H6(v13) -> C2H6^+
e + C2H6 => e + e + H + C2H5^+		! f54 * Bolsig+ C2H6 -> H C2H5^+
e + C2H6(v24) => e + e + H + C2H5^+		! f54 * Bolsig+ C2H6(v24) -> H C2H5^+
e + C2H6(v13) => e + e + H + C2H5^+		! f54 * Bolsig+ C2H6(v13) -> H C2H5^+
e + C2H6 => e + e + H2 + C2H4^+		! f55 * Bolsig+ C2H6 -> H2 C2H4^+
e + C2H6(v24) => e + e + H2 + C2H4^+		! f55 * Bolsig+ C2H6(v24) -> H2 C2H4^+
e + C2H6(v13) => e + e + H2 + C2H4^+		! f55 * Bolsig+ C2H6(v13) -> H2 C2H4^+
e + C2H6 => e + e + H2 + H + C2H3^+		! f56 * Bolsig+ C2H6 -> H2 H C2H3^+
e + C2H6(v24) => e + e + H2 + H + C2H3^+		! f56 * Bolsig+ C2H6(v24) -> H2 H C2H3^+
e + C2H6(v13) => e + e + H2 + H + C2H3^+		! f56 * Bolsig+ C2H6(v13) -> H2 H C2H3^+
e + C2H6 => e + e + H2 + H2 + C2H2^+		! f57 * Bolsig+ C2H6 -> H2 H2 C2H2^+
e + C2H6(v24) => e + e + H2 + H2 + C2H2^+		! f57 * Bolsig+ C2H6(v24) -> H2 H2 C2H2^+
e + C2H6(v13) => e + e + H2 + H2 + C2H2^+		! f57 * Bolsig+ C2H6(v13) -> H2 H2 C2H2^+
e + C2H6 => e + e + CH3 + CH3^+		! f58 * Bolsig+ C2H6 -> CH3 CH3^+
e + C2H6(v24) => e + e + CH3 + CH3^+		! f58 * Bolsig+ C2H6(v24) -> CH3 CH3^+
e + C2H6(v13) => e + e + CH3 + CH3^+		! f58 * Bolsig+ C2H6(v13) -> CH3 CH3^+
e + C2H6 => e + e + CH4 + CH2^+		! f59 * Bolsig+ C2H6 -> CH4 CH2^+
e + C2H6(v24) => e + e + CH4 + CH2^+		! f59 * Bolsig+ C2H6(v24) -> CH4 CH2^+
e + C2H6(v13) => e + e + CH4 + CH2^+		! f59 * Bolsig+ C2H6(v13) -> CH4 CH2^+
e + C2H5 => e + e + C2H5^+		! f60 * Bolsig+ C2H5 -> C2H5^+
e + C2H5 => e + e + H + C2H4^+		! f61 * Bolsig+ C2H5 -> H C2H4^+
e + C2H5 => e + e + H2 + C2H3^+		! f62 * Bolsig+ C2H5 -> H2 C2H3^+
e + C2H5 => e + e + H2 + H + C2H2^+		! f63 * Bolsig+ C2H5 -> H2 H C2H2^+
e + C2H5 => e + e + CH2 + CH3^+		! f64 * Bolsig+ C2H5 -> CH2 CH3^+
e + C2H5 => e + e + CH3 + CH2^+		! f65 * Bolsig+ C2H5 -> CH3 CH2^+
e + C2H5 => e + e + CH4 + CH^+		! f66 * Bolsig+ C2H5 -> CH4 CH^+
e + C2H4 => e + e + C2H4^+		! f67 * Bolsig+ C2H4 -> C2H4^+
e + C2H4(v1) => e + e + C2H4^+		! f67 * Bolsig+ C2H4(v1) -> C2H4^+
e + C2H4(v2) => e + e + C2H4^+		! f67 * Bolsig+ C2H4(v2) -> C2H4^+
e + C2H4 => e + e + H + C2H3^+		! f68 * Bolsig+ C2H4 -> H C2H3^+
e + C2H4(v1) => e + e + H + C2H3^+		! f68 * Bolsig+ C2H4(v1) -> H C2H3^+
e + C2H4(v2) => e + e + H + C2H3^+		! f68 * Bolsig+ C2H4(v2) -> H C2H3^+
e + C2H4 => e + e + CH + CH3^+		! f69 * Bolsig+ C2H4 -> CH CH3^+
e + C2H4(v1) => e + e + CH + CH3^+		! f69 * Bolsig+ C2H4(v1) -> CH CH3^+
e + C2H4(v2) => e + e + CH + CH3^+		! f69 * Bolsig+ C2H4(v2) -> CH CH3^+
e + C2H4 => e + e + CH2 + CH2^+		! f70 * Bolsig+ C2H4 -> CH2 CH2^+
e + C2H4(v1) => e + e + CH2 + CH2^+		! f70 * Bolsig+ C2H4(v1) -> CH2 CH2^+
e + C2H4(v2) => e + e + CH2 + CH2^+		! f70 * Bolsig+ C2H4(v2) -> CH2 CH2^+
e + C2H4 => e + e + CH3 + CH^+		! f71 * Bolsig+ C2H4 -> CH3 CH^+
e + C2H4(v1) => e + e + CH3 + CH^+		! f71 * Bolsig+ C2H4(v1) -> CH3 CH^+
e + C2H4(v2) => e + e + CH3 + CH^+		! f71 * Bolsig+ C2H4(v2) -> CH3 CH^+
e + C2H3 => e + e + C2H3^+		! f72 * Bolsig+ C2H3 -> C2H3^+
e + C2H3 => e + e + H + C2H2^+		! f73 * Bolsig+ C2H3 -> H C2H2^+
e + C2H3 => e + e + CH + CH2^+		! f74 * Bolsig+ C2H3 -> CH CH2^+
e + C2H3 => e + e + CH2 + CH^+		! f75 * Bolsig+ C2H3 -> CH2 CH^+
e + C2H3 => e + e + C2H2 + H^+		! f76 * Bolsig+ C2H3 -> C2H2 H^+
e + C2H2 => e + e + C2H2^+		! f77 * Bolsig+ C2H2 -> C2H2^+
e + C2H2(v5) => e + e + C2H2^+		! f77 * Bolsig+ C2H2(v5) -> C2H2^+
e + C2H2(v2) => e + e + C2H2^+		! f77 * Bolsig+ C2H2(v2) -> C2H2^+
e + C2H2(v13) => e + e + C2H2^+		! f77 * Bolsig+ C2H2(v13) -> C2H2^+
e + C2H2 => e + e + CH + CH^+		! f78 * Bolsig+ C2H2 -> CH CH^+
e + C2H2(v5) => e + e + CH + CH^+		! f78 * Bolsig+ C2H2(v5) -> CH CH^+
e + C2H2(v2) => e + e + CH + CH^+		! f78 * Bolsig+ C2H2(v2) -> CH CH^+
e + C2H2(v13) => e + e + CH + CH^+		! f78 * Bolsig+ C2H2(v13) -> CH CH^+
e + C3H8 => e + C3H7 + H		! f79 * Bolsig+ C3H8 -> C3H7 H
e + C3H8(v1) => e + C3H7 + H		! f79 * Bolsig+ C3H8(v1) -> C3H7 H
e + C3H8(v2) => e + C3H7 + H		! f79 * Bolsig+ C3H8(v2) -> C3H7 H
e + C3H8 => e + C3H6 + H2		! f80 * Bolsig+ C3H8 -> C3H6 H2
e + C3H8(v1) => e + C3H6 + H2		! f80 * Bolsig+ C3H8(v1) -> C3H6 H2
e + C3H8(v2) => e + C3H6 + H2		! f80 * Bolsig+ C3H8(v2) -> C3H6 H2
e + C3H7 => e + C3H6 + H		! f81 * Bolsig+ C3H7 -> C3H6 H
e + C3H8 => e + e + C3H8^+		! f82 * Bolsig+ C3H8 -> C3H8^+
e + C3H8(v1) => e + e + C3H8^+		! f82 * Bolsig+ C3H8(v1) -> C3H8^+
e + C3H8(v2) => e + e + C3H8^+		! f82 * Bolsig+ C3H8(v2) -> C3H8^+
e + C3H8 => e + e + H + C3H7^+		! f83 * Bolsig+ C3H8 -> H C3H7^+
e + C3H8(v1) => e + e + H + C3H7^+		! f83 * Bolsig+ C3H8(v1) -> H C3H7^+
e + C3H8(v2) => e + e + H + C3H7^+		! f83 * Bolsig+ C3H8(v2) -> H C3H7^+
e + C3H8 => e + e + H2 + C3H6^+		! f84 * Bolsig+ C3H8 -> H2 C3H6^+
e + C3H8(v1) => e + e + H2 + C3H6^+		! f84 * Bolsig+ C3H8(v1) -> H2 C3H6^+
e + C3H8(v2) => e + e + H2 + C3H6^+		! f84 * Bolsig+ C3H8(v2) -> H2 C3H6^+
e + C3H7 => e + e + C3H7^+		! f85 * Bolsig+ C3H7 -> C3H7^+
e + C3H7 => e + e + H + C3H6^+		! f86 * Bolsig+ C3H7 -> H C3H6^+
e + C3H6 => e + e + C3H6^+		! f87 * Bolsig+ C3H6 -> C3H6^+
e + C3H6(v) => e + e + C3H6^+		! f87 * Bolsig+ C3H6(v) -> C3H6^+
e + C3H6 => e + C2H2 + CH4		! f88 * Bolsig+ C3H6 -> C2H2 CH4
e + C3H6(v) => e + C2H2 + CH4		! f88 * Bolsig+ C3H6(v) -> C2H2 CH4
e + C3H6 => e + e + C2H2 + CH4^+		! f89 * Bolsig+ C3H6 -> C2H2 CH4^+
e + C3H6(v) => e + e + C2H2 + CH4^+		! f89 * Bolsig+ C3H6(v) -> C2H2 CH4^+

# Ion Recombination Reaction
e + e + CH^+ => e + CH		! f90 * 1.00d0
e + e + CH2^+ => e + CH2		! f91 * 1.00d0
e + e + CH3^+ => e + CH3		! f92 * 1.00d0
e + e + CH4^+ => e + CH4		! f93 * 1.00d0
e + e + C2H2^+ => e + C2H2		! f94 * 1.00d0
e + e + C2H3^+ => e + C2H3		! f95 * 1.00d0
e + e + C2H4^+ => e + C2H4		! f96 * 1.00d0
e + e + C2H5^+ => e + C2H5		! f97 * 1.00d0
e + e + C2H6^+ => e + C2H6		! f98 * 1.00d0
e + e + C3H6^+ => e + C3H6		! f99 * 1.00d0
e + e + C3H7^+ => e + C3H7		! f100 * 1.00d0
e + e + C3H8^+ => e + C3H8		! f101 * 1.00d0

# Gas Phase Reaction
e + CH4^+ => CH3 + H		! f102 * 1.18d-08 * (300./Tgas)**0.5
e + CH4^+ => CH2 + H + H		! f103 * 2.42d-08 * (300./Tgas)**0.5
e + CH4^+ => CH + H2 + H		! f104 * 1.41d-08 * (300./Tgas)**0.5
e + CH3^+ => CH2 + H		! f105 * 2.25d-08 * (300./Tgas)**0.5
e + CH3^+ => CH + H2		! f106 * 7.88d-09 * (300./Tgas)**0.5
e + CH3^+ => CH + H + H		! f107 * 9.00d-09 * (300./Tgas)**0.5
e + CH3^+ => C + H2 + H		! f108 * 1.69d-08 * (300./Tgas)**0.5
e + CH2^+ => CH + H		! f109 * 1.00d-08 * (300./Tgas)**0.5
e + CH2^+ => C + H2		! f110 * 4.82d-09 * (300./Tgas)**0.5
e + CH2^+ => C + H + H		! f111 * 2.53d-08 * (300./Tgas)**0.5
e + CH^+ => C + H		! f112 * 3.23d-08 * (300./Tgas)**0.42
e + C2H6^+ => C2H5 + H		! f113 * 2.19d-08 * (300./Tgas)**0.71
e + C2H6^+ => C2H4 + H + H		! f114 * 3.36d-08 * (300./Tgas)**0.71
e + C2H5^+ => C2H4 + H		! f115 * 7.70d-09 * (300./Tgas)**0.71
e + C2H5^+ => C2H3 + H + H		! f116 * 1.92d-08 * (300./Tgas)**0.71
e + C2H5^+ => C2H2 + H2 + H		! f117 * 1.60d-08 * (300./Tgas)**0.71
e + C2H5^+ => C2H2 + H + H + H		! f118 * 8.98d-09 * (300./Tgas)**0.71
e + C2H5^+ => CH3 + CH2		! f119 * 9.62d-09 * (300./Tgas)**0.71
e + C2H4^+ => C2H3 + H		! f120 * 8.29d-09 * (300./Tgas)**0.71
e + C2H4^+ => C2H2 + H + H		! f121 * 3.43d-08 * (300./Tgas)**0.71
e + C2H3^+ => C2H2 + H		! f122 * 1.34d-08 * (300./Tgas)**0.71
e + C2H2^+ => CH + CH		! f123 * 4.87d-09 * (300./Tgas)**0.71
e + H2^+ => H + H		! f124 * 3.17d21/(6.022d23 * Te**4.5)
e + H3^+ => H + H2		! f125 * 3.17d21/(6.022d23 * Te**4.5)
H2 + H2^+ => H + H3^+		! f126 * 2.11d-09
C2H6 + CH4^+ => CH4 + H2 + C2H4^+		! f127 * 1.91d-9
C2H6(v24) + CH4^+ => CH4 + H2 + C2H4^+		! f127 * 1.91d-9
C2H6(v13) + CH4^+ => CH4 + H2 + C2H4^+		! f127 * 1.91d-9
C2H4 + CH4^+ => CH3 + C2H5^+		! f128 * 4.23d-10