ELEMENTS
e C H
END

SPECIES
e C CH CH^+ CH2 CH2^+ CH3 CH3^+ CH4 CH4(v13) CH4(v24) CH4^+ C2H2 C2H2(v13) C2H2(v2) C2H2(v5) C2H2^+ C2H3 C2H3^+ C2H4 C2H4(v1) C2H4(v2) C2H4^+ C2H5 C2H5^+
C2H6 C2H6(v13) C2H6(v24) C2H6^+ C3H5 C3H6 C3H6(v) C3H6^+ C3H7 C3H7^+ C3H8 C3H8(v1) C3H8(v2) C3H8^+ C4H9 C4H9H C2H C5H12 H H2 H2^+ H3^+ H^+
END

BOLSIG
CH CH2 CH3 CH4 CH4(v13) CH4(v24) C2H2 C2H2(v13) C2H2(v2) C2H2(v5) C2H3 C2H4 C2H4(v1) C2H4(v2) C2H5 C2H6 C2H6(v13) C2H6(v24) C3H6 C3H6(v) C3H7 C3H8 C3H8(v1) C3H8(v2)
END

REACTIONS
# Gas Constant
$ double precision, parameter :: R = 8.314d-3

# Compensation Parameters
$ double precision, parameter :: f0 = 5.7225d-2
$ double precision, parameter :: f1 = 1.5740d-4
$ double precision, parameter :: f2 = 5.2444d+2
$ double precision, parameter :: f3 = 8.5035d+2
$ double precision, parameter :: f4 = 2.1057d+1
$ double precision, parameter :: f5 = 2.6652d-7
$ double precision, parameter :: f6 = 3.0470d-6
$ double precision, parameter :: f7 = 1.8174d-7
$ double precision, parameter :: f8 = 1.4381d-1
$ double precision, parameter :: f9 = 5.4382d-1
$ double precision, parameter :: f10 = 2.1225d-5
$ double precision, parameter :: f11 = 2.6766d-7
$ double precision, parameter :: f12 = 1.2774d-6
$ double precision, parameter :: f13 = 1.0860d0
$ double precision, parameter :: f14 = 1.0008d-4
$ double precision, parameter :: f15 = 3.8472d+1
$ double precision, parameter :: f16 = 5.4389d-4
$ double precision, parameter :: f17 = 3.7309d-6
$ double precision, parameter :: f18 = 1.1965d-2
$ double precision, parameter :: f19 = 5.7873d-8
$ double precision, parameter :: f20 = 2.3185d-6
$ double precision, parameter :: f21 = 3.5652d-2
$ double precision, parameter :: f22 = 3.0547d+1
$ double precision, parameter :: f23 = 3.4132d0
$ double precision, parameter :: f24 = 1.1349d-4
$ double precision, parameter :: f25 = 3.9911d+2
$ double precision, parameter :: f26 = 1.6681d-4
$ double precision, parameter :: f27 = 2.5537d-3
$ double precision, parameter :: f28 = 3.0834d+2
$ double precision, parameter :: f29 = 8.6001d-5
$ double precision, parameter :: f30 = 1.6276d+1
$ double precision, parameter :: f31 = 1.3705d-6
$ double precision, parameter :: f32 = 3.8204d-4
$ double precision, parameter :: f33 = 2.2598d-1
$ double precision, parameter :: f34 = 4.3583d+2
$ double precision, parameter :: f35 = 8.2972d0
$ double precision, parameter :: f36 = 1.2647d-6
$ double precision, parameter :: f37 = 4.8840d-4
$ double precision, parameter :: f38 = 2.1139d-7
$ double precision, parameter :: f39 = 3.3166d-8
$ double precision, parameter :: f40 = 1.1383d-4
$ double precision, parameter :: f41 = 9.9486d-1
$ double precision, parameter :: f42 = 3.6858d-5
$ double precision, parameter :: f43 = 1.1073d-3
$ double precision, parameter :: f44 = 8.0406d-1
$ double precision, parameter :: f45 = 9.2767d-7
$ double precision, parameter :: f46 = 4.3920d-4
$ double precision, parameter :: f47 = 1.3866d-5
$ double precision, parameter :: f48 = 3.4232d0
$ double precision, parameter :: f49 = 8.2684d-1
$ double precision, parameter :: f50 = 5.3292d+1
$ double precision, parameter :: f51 = 5.7556d+1
$ double precision, parameter :: f52 = 3.9350d+1
$ double precision, parameter :: f53 = 2.8928d-4
$ double precision, parameter :: f54 = 2.3908d+2
$ double precision, parameter :: f55 = 2.3517d+1
$ double precision, parameter :: f56 = 1.7355d-3
$ double precision, parameter :: f57 = 2.1679d+2
$ double precision, parameter :: f58 = 1.6207d+1
$ double precision, parameter :: f59 = 1.8856d-7
$ double precision, parameter :: f60 = 1.2425d-7
$ double precision, parameter :: f61 = 3.9341d-1
$ double precision, parameter :: f62 = 6.0503d+2
$ double precision, parameter :: f63 = 6.3920d-2
$ double precision, parameter :: f64 = 4.6642d-2
$ double precision, parameter :: f65 = 1.7562d-7
$ double precision, parameter :: f66 = 4.0796d-1
$ double precision, parameter :: f67 = 6.7958d-3
$ double precision, parameter :: f68 = 1.3102d-3
$ double precision, parameter :: f69 = 2.7085d-8
$ double precision, parameter :: f70 = 3.8926d+1
$ double precision, parameter :: f71 = 1.0087d-2
$ double precision, parameter :: f72 = 2.2895d-7
$ double precision, parameter :: f73 = 2.2817d+2
$ double precision, parameter :: f74 = 7.3201d+2
$ double precision, parameter :: f75 = 3.1794d-3
$ double precision, parameter :: f76 = 4.7477d+2
$ double precision, parameter :: f77 = 2.2239d+1
$ double precision, parameter :: f78 = 6.5663d0
$ double precision, parameter :: f79 = 2.3813d-1
$ double precision, parameter :: f80 = 5.2206d-6
$ double precision, parameter :: f81 = 7.3263d-6
$ double precision, parameter :: f82 = 6.7608d+2
$ double precision, parameter :: f83 = 1.8597d-5
$ double precision, parameter :: f84 = 5.6255d+2
$ double precision, parameter :: f85 = 2.4366d+2
$ double precision, parameter :: f86 = 3.6609d-5
$ double precision, parameter :: f87 = 4.3673d-4
$ double precision, parameter :: f88 = 6.4538d-4
$ double precision, parameter :: f89 = 8.0310d-2
$ double precision, parameter :: f90 = 6.2388d-7
$ double precision, parameter :: f91 = 5.1467d-3
$ double precision, parameter :: f92 = 5.8566d-1
$ double precision, parameter :: f93 = 7.4799d+1
$ double precision, parameter :: f94 = 4.4521d-2
$ double precision, parameter :: f95 = 6.7807d-2
$ double precision, parameter :: f96 = 2.5951d-2
$ double precision, parameter :: f97 = 2.0768d-4
$ double precision, parameter :: f98 = 5.4139d-2
$ double precision, parameter :: f99 = 4.2732d-3
$ double precision, parameter :: f100 = 9.0901d-7
$ double precision, parameter :: f101 = 1.2690d+1
$ double precision, parameter :: f102 = 1.6031d0
$ double precision, parameter :: f103 = 1.4322d-7
$ double precision, parameter :: f104 = 2.8028d-3
$ double precision, parameter :: f105 = 6.4081d+1
$ double precision, parameter :: f106 = 3.0108d-2
$ double precision, parameter :: f107 = 6.3917d-6
$ double precision, parameter :: f108 = 4.0089d0
$ double precision, parameter :: f109 = 2.1742d-2
$ double precision, parameter :: f110 = 4.6187d-2
$ double precision, parameter :: f111 = 1.1450d-8
$ double precision, parameter :: f112 = 4.0733d-6
$ double precision, parameter :: f113 = 7.2589d-5
$ double precision, parameter :: f114 = 9.0433d0
$ double precision, parameter :: f115 = 4.0782d-2
$ double precision, parameter :: f116 = 2.8572d-3
$ double precision, parameter :: f117 = 9.0489d-5
$ double precision, parameter :: f118 = 3.1142d0
$ double precision, parameter :: f119 = 2.4579d+2
$ double precision, parameter :: f120 = 7.7167d-8
$ double precision, parameter :: f121 = 2.4850d+2
$ double precision, parameter :: f122 = 9.6363d0
$ double precision, parameter :: f123 = 2.3536d-4
$ double precision, parameter :: f124 = 6.2468d-3
$ double precision, parameter :: f125 = 4.5990d-6
$ double precision, parameter :: f126 = 1.0447d-7
$ double precision, parameter :: f127 = 7.1193d+1
$ double precision, parameter :: f128 = 1.4776d-2
$ double precision, parameter :: f129 = 5.0850d0
$ double precision, parameter :: f130 = 2.8300d-2
$ double precision, parameter :: f131 = 1.1499d-7
$ double precision, parameter :: f132 = 2.5423d-7
$ double precision, parameter :: f133 = 4.0832d0
$ double precision, parameter :: f134 = 1.4704d+1
$ double precision, parameter :: f135 = 2.2474d-4
$ double precision, parameter :: f136 = 8.5916d-6
$ double precision, parameter :: f137 = 1.0693d-2
$ double precision, parameter :: f138 = 1.7223d+1
$ double precision, parameter :: f139 = 5.0236d-6
$ double precision, parameter :: f140 = 3.2862d-4
$ double precision, parameter :: f141 = 6.7784d-7
$ double precision, parameter :: f142 = 4.4287d-4
$ double precision, parameter :: f143 = 8.7306d-6
$ double precision, parameter :: f144 = 2.8179d-8
$ double precision, parameter :: f145 = 8.2682d+2
$ double precision, parameter :: f146 = 1.2847d+2
$ double precision, parameter :: f147 = 2.8127d-5
$ double precision, parameter :: f148 = 1.2761d+1
$ double precision, parameter :: f149 = 1.0592d0
$ double precision, parameter :: f150 = 6.0602d-5
$ double precision, parameter :: f151 = 1.1365d-2
$ double precision, parameter :: f152 = 1.3455d-6
$ double precision, parameter :: f153 = 4.8367d-2
$ double precision, parameter :: f154 = 6.7671d-7
$ double precision, parameter :: f155 = 1.8162d+2
$ double precision, parameter :: f156 = 7.7422d-2
$ double precision, parameter :: f157 = 1.5626d-3
$ double precision, parameter :: f158 = 1.1787d-6
$ double precision, parameter :: f159 = 1.2209d-4
$ double precision, parameter :: f160 = 5.1430d0
$ double precision, parameter :: f161 = 3.7501d-6
$ double precision, parameter :: f162 = 8.3674d-4
$ double precision, parameter :: f163 = 7.7330d-1
$ double precision, parameter :: f164 = 4.9632d-1
$ double precision, parameter :: f165 = 3.3411d-5
$ double precision, parameter :: f166 = 8.0287d-3
$ double precision, parameter :: f167 = 3.3904d-3
$ double precision, parameter :: f168 = 2.1124d-1
$ double precision, parameter :: f169 = 5.1639d-5
$ double precision, parameter :: f170 = 7.7041d-5
$ double precision, parameter :: f171 = 1.0861d-7
$ double precision, parameter :: f172 = 5.4394d-8
$ double precision, parameter :: f173 = 7.1002d-6
$ double precision, parameter :: f174 = 2.0849d-2
$ double precision, parameter :: f175 = 8.1481d0
$ double precision, parameter :: f176 = 1.4495d0
$ double precision, parameter :: f177 = 8.6211d-5
$ double precision, parameter :: f178 = 6.0786d+2
$ double precision, parameter :: f179 = 6.5882d-1
$ double precision, parameter :: f180 = 6.6477d-7
$ double precision, parameter :: f181 = 1.3101d-8
$ double precision, parameter :: f182 = 5.1184d-1
$ double precision, parameter :: f183 = 1.2344d-8
$ double precision, parameter :: f184 = 1.2076d+2
$ double precision, parameter :: f185 = 8.2345d-1
$ double precision, parameter :: f186 = 5.1352d-2
$ double precision, parameter :: f187 = 6.4048d-2
$ double precision, parameter :: f188 = 3.1481d0
$ double precision, parameter :: f189 = 5.5531d+2
$ double precision, parameter :: f190 = 5.0501d-8
$ double precision, parameter :: f191 = 1.5230d-4
$ double precision, parameter :: f192 = 7.9165d-5
$ double precision, parameter :: f193 = 2.0175d-3
$ double precision, parameter :: f194 = 9.9037d-6
$ double precision, parameter :: f195 = 1.1652d-5
$ double precision, parameter :: f196 = 5.1097d-7
$ double precision, parameter :: f197 = 4.5934d0
$ double precision, parameter :: f198 = 7.3083d-1
$ double precision, parameter :: f199 = 4.4324d-1
$ double precision, parameter :: f200 = 5.1026d-8
$ double precision, parameter :: f201 = 2.0480d-8
$ double precision, parameter :: f202 = 2.9508d+2
$ double precision, parameter :: f203 = 7.9061d-4
$ double precision, parameter :: f204 = 1.4181d-7
$ double precision, parameter :: f205 = 1.1679d-3
$ double precision, parameter :: f206 = 1.9746d-3
$ double precision, parameter :: f207 = 1.7985d-6
$ double precision, parameter :: f208 = 1.2787d-8
$ double precision, parameter :: f209 = 3.8491d-3
$ double precision, parameter :: f210 = 1.1137d-7
$ double precision, parameter :: f211 = 9.2691d-6
$ double precision, parameter :: f212 = 8.6485d-3
$ double precision, parameter :: f213 = 3.1792d+2
$ double precision, parameter :: f214 = 4.9714d-8
$ double precision, parameter :: f215 = 5.0967d-5
$ double precision, parameter :: f216 = 8.6067d-1
$ double precision, parameter :: f217 = 1.5030d-7
$ double precision, parameter :: f218 = 2.3188d+1
$ double precision, parameter :: f219 = 7.4450d-6
$ double precision, parameter :: f220 = 2.5599d0
$ double precision, parameter :: f221 = 7.9668d0
$ double precision, parameter :: f222 = 3.8938d+1
$ double precision, parameter :: f223 = 3.1453d+2
$ double precision, parameter :: f224 = 1.0053d+2
$ double precision, parameter :: f225 = 7.2375d-6
$ double precision, parameter :: f226 = 7.5959d0
$ double precision, parameter :: f227 = 5.7357d-3
$ double precision, parameter :: f228 = 1.2076d-8
$ double precision, parameter :: f229 = 1.1221d-8
$ double precision, parameter :: f230 = 4.0983d-4
$ double precision, parameter :: f231 = 5.9334d+2
$ double precision, parameter :: f232 = 4.0910d-8
$ double precision, parameter :: f233 = 6.9632d-6
$ double precision, parameter :: f234 = 1.6251d+1
$ double precision, parameter :: f235 = 8.4045d-6
$ double precision, parameter :: f236 = 1.3364d0
$ double precision, parameter :: f237 = 5.2839d-1
$ double precision, parameter :: f238 = 3.3967d+2
$ double precision, parameter :: f239 = 7.7186d-6
$ double precision, parameter :: f240 = 2.3080d-1
$ double precision, parameter :: f241 = 5.6148d-6
$ double precision, parameter :: f242 = 1.6281d-4
$ double precision, parameter :: f243 = 8.3350d-8
$ double precision, parameter :: f244 = 9.1028d-7
$ double precision, parameter :: f245 = 1.6377d+1
$ double precision, parameter :: f246 = 2.7941d-6
$ double precision, parameter :: f247 = 3.2451d-5
$ double precision, parameter :: f248 = 4.0323d-4
$ double precision, parameter :: f249 = 6.7354d+1
$ double precision, parameter :: f250 = 1.7084d+2
$ double precision, parameter :: f251 = 8.9803d0
$ double precision, parameter :: f252 = 4.4111d-2
$ double precision, parameter :: f253 = 3.9356d-4
$ double precision, parameter :: f254 = 6.6896d-2
$ double precision, parameter :: f255 = 4.2533d0
$ double precision, parameter :: f256 = 4.6536d+2
$ double precision, parameter :: f257 = 1.1908d-3
$ double precision, parameter :: f258 = 8.8144d0
$ double precision, parameter :: f259 = 4.1024d-6
$ double precision, parameter :: f260 = 6.0558d-1
$ double precision, parameter :: f261 = 4.7486d-5
$ double precision, parameter :: f262 = 7.4471d-2
$ double precision, parameter :: f263 = 8.5980d0
$ double precision, parameter :: f264 = 6.6516d-7
$ double precision, parameter :: f265 = 1.2089d-2
$ double precision, parameter :: f266 = 4.0505d-2
$ double precision, parameter :: f267 = 7.1190d-5
$ double precision, parameter :: f268 = 8.4028d-6
$ double precision, parameter :: f269 = 2.3938d-6
$ double precision, parameter :: f270 = 4.8041d-7
$ double precision, parameter :: f271 = 2.8037d-2
$ double precision, parameter :: f272 = 2.1427d-2
$ double precision, parameter :: f273 = 2.3644d-1
$ double precision, parameter :: f274 = 1.5867d+1
$ double precision, parameter :: f275 = 2.0499d-4
$ double precision, parameter :: f276 = 4.6234d-7
$ double precision, parameter :: f277 = 7.4401d0
$ double precision, parameter :: f278 = 2.8254d-3
$ double precision, parameter :: f279 = 6.4227d+1
$ double precision, parameter :: f280 = 1.0238d-8
$ double precision, parameter :: f281 = 5.0802d-8
$ double precision, parameter :: f282 = 3.4994d-4
$ double precision, parameter :: f283 = 3.1370d-3
$ double precision, parameter :: f284 = 2.1773d+1
$ double precision, parameter :: f285 = 3.7637d-5
$ double precision, parameter :: f286 = 1.8242d+2
$ double precision, parameter :: f287 = 8.7113d-1
$ double precision, parameter :: f288 = 1.9703d-5
$ double precision, parameter :: f289 = 3.9500d-2
$ double precision, parameter :: f290 = 1.0107d+1
$ double precision, parameter :: f291 = 4.3833d0
$ double precision, parameter :: f292 = 7.0421d0
$ double precision, parameter :: f293 = 1.1763d-8
$ double precision, parameter :: f294 = 4.7945d+2
$ double precision, parameter :: f295 = 1.2598d-7
$ double precision, parameter :: f296 = 8.9003d-5
$ double precision, parameter :: f297 = 5.1343d+2
$ double precision, parameter :: f298 = 2.2683d+2
$ double precision, parameter :: f299 = 6.2812d-8
$ double precision, parameter :: f300 = 1.6570d-5
$ double precision, parameter :: f301 = 7.6869d-7
$ double precision, parameter :: f302 = 1.5391d0
$ double precision, parameter :: f303 = 2.6162d-6
$ double precision, parameter :: f304 = 4.4294d-2
$ double precision, parameter :: f305 = 6.6362d-8
$ double precision, parameter :: f306 = 3.5715d-3
$ double precision, parameter :: f307 = 2.4306d-6
$ double precision, parameter :: f308 = 1.5314d-2
$ double precision, parameter :: f309 = 8.2075d-3
$ double precision, parameter :: f310 = 3.5482d-2
$ double precision, parameter :: f311 = 3.8840d-6
$ double precision, parameter :: f312 = 1.6710d-4
$ double precision, parameter :: f313 = 1.0840d0
$ double precision, parameter :: f314 = 1.0714d-3
$ double precision, parameter :: f315 = 2.5259d-6

# Electron Collision Reaction
e + CH4 => e + CH4(v24)		! f0 * Bolsig+ CH4 -> CH4(v24)
e + CH4 => e + CH4(v13)		! f1 * Bolsig+ CH4 -> CH4(v13)
e + C2H6 => e + C2H6(v24)		! f2 * Bolsig+ C2H6 -> C2H6(v24)
e + C2H6 => e + C2H6(v13)		! f3 * Bolsig+ C2H6 -> C2H6(v13)
e + C2H4 => e + C2H4(v1)		! f4 * Bolsig+ C2H4 -> C2H4(v1)
e + C2H4 => e + C2H4(v2)		! f5 * Bolsig+ C2H4 -> C2H4(v2)
e + C2H2 => e + C2H2(v5)		! f6 * Bolsig+ C2H2 -> C2H2(v5)
e + C2H2 => e + C2H2(v2)		! f7 * Bolsig+ C2H2 -> C2H2(v2)
e + C2H2 => e + C2H2(v13)		! f8 * Bolsig+ C2H2 -> C2H2(v13)
e + C3H8 => e + C3H8(v1)		! f9 * Bolsig+ C3H8 -> C3H8(v1)
e + C3H8 => e + C3H8(v2)		! f10 * Bolsig+ C3H8 -> C3H8(v2)
e + C3H6 => e + C3H6(v)		! f11 * Bolsig+ C3H6 -> C3H6(v)
e + CH4 => e + CH3 + H		! f12 * Bolsig+ CH4 -> CH3 H
e + CH4(v24) => e + CH3 + H		! f12 * Bolsig+ CH4(v24) -> CH3 H
e + CH4(v13) => e + CH3 + H		! f12 * Bolsig+ CH4(v13) -> CH3 H
e + CH4 => e + CH2 + H2		! f13 * Bolsig+ CH4 -> CH2 H2
e + CH4(v24) => e + CH2 + H2		! f13 * Bolsig+ CH4(v24) -> CH2 H2
e + CH4(v13) => e + CH2 + H2		! f13 * Bolsig+ CH4(v13) -> CH2 H2
e + CH4 => e + CH + H2 + H		! f14 * Bolsig+ CH4 -> CH H2 H
e + CH4(v24) => e + CH + H2 + H		! f14 * Bolsig+ CH4(v24) -> CH H2 H
e + CH4(v13) => e + CH + H2 + H		! f14 * Bolsig+ CH4(v13) -> CH H2 H
e + CH4 => e + C + H2 + H2		! f15 * Bolsig+ CH4 -> C H2 H2
e + CH4(v24) => e + C + H2 + H2		! f15 * Bolsig+ CH4(v24) -> C H2 H2
e + CH4(v13) => e + C + H2 + H2		! f15 * Bolsig+ CH4(v13) -> C H2 H2
e + CH3 => e + CH2 + H		! f16 * Bolsig+ CH3 -> CH2 H
e + CH3 => e + CH + H2		! f17 * Bolsig+ CH3 -> CH H2
e + CH3 => e + C + H2 + H		! f18 * Bolsig+ CH3 -> C H2 H
e + CH2 => e + CH + H		! f19 * Bolsig+ CH2 -> CH H
e + CH2 => e + C + H2		! f20 * Bolsig+ CH2 -> C H2
e + CH2 => e + C + H + H		! f21 * Bolsig+ CH2 -> C H H
e + CH => e + C + H		! f22 * Bolsig+ CH -> C H
e + CH4 => e + e + CH4^+		! f23 * Bolsig+ CH4 -> CH4^+
e + CH4(v24) => e + e + CH4^+		! f23 * Bolsig+ CH4(v24) -> CH4^+
e + CH4(v13) => e + e + CH4^+		! f23 * Bolsig+ CH4(v13) -> CH4^+
e + CH4 => e + e + H + CH3^+		! f24 * Bolsig+ CH4 -> H CH3^+
e + CH4(v24) => e + e + H + CH3^+		! f24 * Bolsig+ CH4(v24) -> H CH3^+
e + CH4(v13) => e + e + H + CH3^+		! f24 * Bolsig+ CH4(v13) -> H CH3^+
e + CH4 => e + e + H2 + CH2^+		! f25 * Bolsig+ CH4 -> H2 CH2^+
e + CH4(v24) => e + e + H2 + CH2^+		! f25 * Bolsig+ CH4(v24) -> H2 CH2^+
e + CH4(v13) => e + e + H2 + CH2^+		! f25 * Bolsig+ CH4(v13) -> H2 CH2^+
e + CH4 => e + e + H2 + H + CH^+		! f26 * Bolsig+ CH4 -> H2 H CH^+
e + CH4(v24) => e + e + H2 + H + CH^+		! f26 * Bolsig+ CH4(v24) -> H2 H CH^+
e + CH4(v13) => e + e + H2 + H + CH^+		! f26 * Bolsig+ CH4(v13) -> H2 H CH^+
e + CH3 => e + e + CH3^+		! f27 * Bolsig+ CH3 -> CH3^+
e + CH3 => e + e + H + CH2^+		! f28 * Bolsig+ CH3 -> H CH2^+
e + CH3 => e + e + H2 + CH^+		! f29 * Bolsig+ CH3 -> H2 CH^+
e + CH2 => e + e + CH2^+		! f30 * Bolsig+ CH2 -> CH2^+
e + CH2 => e + e + H + CH^+		! f31 * Bolsig+ CH2 -> H CH^+
e + CH => e + e + CH^+		! f32 * Bolsig+ CH -> CH^+
e + C2H6 => e + C2H5 + H		! f33 * Bolsig+ C2H6 -> C2H5 H
e + C2H6(v24) => e + C2H5 + H		! f33 * Bolsig+ C2H6(v24) -> C2H5 H
e + C2H6(v13) => e + C2H5 + H		! f33 * Bolsig+ C2H6(v13) -> C2H5 H
e + C2H6 => e + C2H4 + H2		! f34 * Bolsig+ C2H6 -> C2H4 H2
e + C2H6(v24) => e + C2H4 + H2		! f34 * Bolsig+ C2H6(v24) -> C2H4 H2
e + C2H6(v13) => e + C2H4 + H2		! f34 * Bolsig+ C2H6(v13) -> C2H4 H2
e + C2H6 => e + C2H3 + H2 + H		! f35 * Bolsig+ C2H6 -> C2H3 H2 H
e + C2H6(v24) => e + C2H3 + H2 + H		! f35 * Bolsig+ C2H6(v24) -> C2H3 H2 H
e + C2H6(v13) => e + C2H3 + H2 + H		! f35 * Bolsig+ C2H6(v13) -> C2H3 H2 H
e + C2H6 => e + C2H2 + H2 + H2		! f36 * Bolsig+ C2H6 -> C2H2 H2 H2
e + C2H6(v24) => e + C2H2 + H2 + H2		! f36 * Bolsig+ C2H6(v24) -> C2H2 H2 H2
e + C2H6(v13) => e + C2H2 + H2 + H2		! f36 * Bolsig+ C2H6(v13) -> C2H2 H2 H2
e + C2H6 => e + CH4 + CH2		! f37 * Bolsig+ C2H6 -> CH4 CH2
e + C2H6(v24) => e + CH4 + CH2		! f37 * Bolsig+ C2H6(v24) -> CH4 CH2
e + C2H6(v13) => e + CH4 + CH2		! f37 * Bolsig+ C2H6(v13) -> CH4 CH2
e + C2H6 => e + CH3 + CH3		! f38 * Bolsig+ C2H6 -> CH3 CH3
e + C2H6(v24) => e + CH3 + CH3		! f38 * Bolsig+ C2H6(v24) -> CH3 CH3
e + C2H6(v13) => e + CH3 + CH3		! f38 * Bolsig+ C2H6(v13) -> CH3 CH3
e + C2H5 => e + C2H4 + H		! f39 * Bolsig+ C2H5 -> C2H4 H
e + C2H5 => e + C2H3 + H2		! f40 * Bolsig+ C2H5 -> C2H3 H2
e + C2H5 => e + C2H3 + H + H		! f41 * Bolsig+ C2H5 -> C2H3 H H
e + C2H5 => e + C2H2 + H2 + H		! f42 * Bolsig+ C2H5 -> C2H2 H2 H
e + C2H5 => e + CH4 + CH		! f43 * Bolsig+ C2H5 -> CH4 CH
e + C2H5 => e + CH3 + CH2		! f44 * Bolsig+ C2H5 -> CH3 CH2
e + C2H4 => e + C2H3 + H		! f45 * Bolsig+ C2H4 -> C2H3 H
e + C2H4(v1) => e + C2H3 + H		! f45 * Bolsig+ C2H4(v1) -> C2H3 H
e + C2H4(v2) => e + C2H3 + H		! f45 * Bolsig+ C2H4(v2) -> C2H3 H
e + C2H4 => e + C2H2 + H2		! f46 * Bolsig+ C2H4 -> C2H2 H2
e + C2H4(v1) => e + C2H2 + H2		! f46 * Bolsig+ C2H4(v1) -> C2H2 H2
e + C2H4(v2) => e + C2H2 + H2		! f46 * Bolsig+ C2H4(v2) -> C2H2 H2
e + C2H4 => e + C2H2 + H + H		! f47 * Bolsig+ C2H4 -> C2H2 H H
e + C2H4(v1) => e + C2H2 + H + H		! f47 * Bolsig+ C2H4(v1) -> C2H2 H H
e + C2H4(v2) => e + C2H2 + H + H		! f47 * Bolsig+ C2H4(v2) -> C2H2 H H
e + C2H4 => e + CH3 + CH		! f48 * Bolsig+ C2H4 -> CH3 CH
e + C2H4(v1) => e + CH3 + CH		! f48 * Bolsig+ C2H4(v1) -> CH3 CH
e + C2H4(v2) => e + CH3 + CH		! f48 * Bolsig+ C2H4(v2) -> CH3 CH
e + C2H4 => e + CH2 + CH2		! f49 * Bolsig+ C2H4 -> CH2 CH2
e + C2H4(v1) => e + CH2 + CH2		! f49 * Bolsig+ C2H4(v1) -> CH2 CH2
e + C2H4(v2) => e + CH2 + CH2		! f49 * Bolsig+ C2H4(v2) -> CH2 CH2
e + C2H3 => e + C2H2 + H		! f50 * Bolsig+ C2H3 -> C2H2 H
e + C2H3 => e + CH2 + CH		! f51 * Bolsig+ C2H3 -> CH2 CH
e + C2H2 => e + CH + CH		! f52 * Bolsig+ C2H2 -> CH CH
e + C2H2(v5) => e + CH + CH		! f52 * Bolsig+ C2H2(v5) -> CH CH
e + C2H2(v2) => e + CH + CH		! f52 * Bolsig+ C2H2(v2) -> CH CH
e + C2H2(v13) => e + CH + CH		! f52 * Bolsig+ C2H2(v13) -> CH CH
e + C2H6 => e + e + C2H6^+		! f53 * Bolsig+ C2H6 -> C2H6^+
e + C2H6(v24) => e + e + C2H6^+		! f53 * Bolsig+ C2H6(v24) -> C2H6^+
e + C2H6(v13) => e + e + C2H6^+		! f53 * Bolsig+ C2H6(v13) -> C2H6^+
e + C2H6 => e + e + H + C2H5^+		! f54 * Bolsig+ C2H6 -> H C2H5^+
e + C2H6(v24) => e + e + H + C2H5^+		! f54 * Bolsig+ C2H6(v24) -> H C2H5^+
e + C2H6(v13) => e + e + H + C2H5^+		! f54 * Bolsig+ C2H6(v13) -> H C2H5^+
e + C2H6 => e + e + H2 + C2H4^+		! f55 * Bolsig+ C2H6 -> H2 C2H4^+
e + C2H6(v24) => e + e + H2 + C2H4^+		! f55 * Bolsig+ C2H6(v24) -> H2 C2H4^+
e + C2H6(v13) => e + e + H2 + C2H4^+		! f55 * Bolsig+ C2H6(v13) -> H2 C2H4^+
e + C2H6 => e + e + H2 + H + C2H3^+		! f56 * Bolsig+ C2H6 -> H2 H C2H3^+
e + C2H6(v24) => e + e + H2 + H + C2H3^+		! f56 * Bolsig+ C2H6(v24) -> H2 H C2H3^+
e + C2H6(v13) => e + e + H2 + H + C2H3^+		! f56 * Bolsig+ C2H6(v13) -> H2 H C2H3^+
e + C2H6 => e + e + H2 + H2 + C2H2^+		! f57 * Bolsig+ C2H6 -> H2 H2 C2H2^+
e + C2H6(v24) => e + e + H2 + H2 + C2H2^+		! f57 * Bolsig+ C2H6(v24) -> H2 H2 C2H2^+
e + C2H6(v13) => e + e + H2 + H2 + C2H2^+		! f57 * Bolsig+ C2H6(v13) -> H2 H2 C2H2^+
e + C2H6 => e + e + CH3 + CH3^+		! f58 * Bolsig+ C2H6 -> CH3 CH3^+
e + C2H6(v24) => e + e + CH3 + CH3^+		! f58 * Bolsig+ C2H6(v24) -> CH3 CH3^+
e + C2H6(v13) => e + e + CH3 + CH3^+		! f58 * Bolsig+ C2H6(v13) -> CH3 CH3^+
e + C2H6 => e + e + CH4 + CH2^+		! f59 * Bolsig+ C2H6 -> CH4 CH2^+
e + C2H6(v24) => e + e + CH4 + CH2^+		! f59 * Bolsig+ C2H6(v24) -> CH4 CH2^+
e + C2H6(v13) => e + e + CH4 + CH2^+		! f59 * Bolsig+ C2H6(v13) -> CH4 CH2^+
e + C2H5 => e + e + C2H5^+		! f60 * Bolsig+ C2H5 -> C2H5^+
e + C2H5 => e + e + H + C2H4^+		! f61 * Bolsig+ C2H5 -> H C2H4^+
e + C2H5 => e + e + H2 + C2H3^+		! f62 * Bolsig+ C2H5 -> H2 C2H3^+
e + C2H5 => e + e + H2 + H + C2H2^+		! f63 * Bolsig+ C2H5 -> H2 H C2H2^+
e + C2H5 => e + e + CH2 + CH3^+		! f64 * Bolsig+ C2H5 -> CH2 CH3^+
e + C2H5 => e + e + CH3 + CH2^+		! f65 * Bolsig+ C2H5 -> CH3 CH2^+
e + C2H5 => e + e + CH4 + CH^+		! f66 * Bolsig+ C2H5 -> CH4 CH^+
e + C2H4 => e + e + C2H4^+		! f67 * Bolsig+ C2H4 -> C2H4^+
e + C2H4(v1) => e + e + C2H4^+		! f67 * Bolsig+ C2H4(v1) -> C2H4^+
e + C2H4(v2) => e + e + C2H4^+		! f67 * Bolsig+ C2H4(v2) -> C2H4^+
e + C2H4 => e + e + H + C2H3^+		! f68 * Bolsig+ C2H4 -> H C2H3^+
e + C2H4(v1) => e + e + H + C2H3^+		! f68 * Bolsig+ C2H4(v1) -> H C2H3^+
e + C2H4(v2) => e + e + H + C2H3^+		! f68 * Bolsig+ C2H4(v2) -> H C2H3^+
e + C2H4 => e + e + CH + CH3^+		! f69 * Bolsig+ C2H4 -> CH CH3^+
e + C2H4(v1) => e + e + CH + CH3^+		! f69 * Bolsig+ C2H4(v1) -> CH CH3^+
e + C2H4(v2) => e + e + CH + CH3^+		! f69 * Bolsig+ C2H4(v2) -> CH CH3^+
e + C2H4 => e + e + CH2 + CH2^+		! f70 * Bolsig+ C2H4 -> CH2 CH2^+
e + C2H4(v1) => e + e + CH2 + CH2^+		! f70 * Bolsig+ C2H4(v1) -> CH2 CH2^+
e + C2H4(v2) => e + e + CH2 + CH2^+		! f70 * Bolsig+ C2H4(v2) -> CH2 CH2^+
e + C2H4 => e + e + CH3 + CH^+		! f71 * Bolsig+ C2H4 -> CH3 CH^+
e + C2H4(v1) => e + e + CH3 + CH^+		! f71 * Bolsig+ C2H4(v1) -> CH3 CH^+
e + C2H4(v2) => e + e + CH3 + CH^+		! f71 * Bolsig+ C2H4(v2) -> CH3 CH^+
e + C2H3 => e + e + C2H3^+		! f72 * Bolsig+ C2H3 -> C2H3^+
e + C2H3 => e + e + H + C2H2^+		! f73 * Bolsig+ C2H3 -> H C2H2^+
e + C2H3 => e + e + CH + CH2^+		! f74 * Bolsig+ C2H3 -> CH CH2^+
e + C2H3 => e + e + CH2 + CH^+		! f75 * Bolsig+ C2H3 -> CH2 CH^+
e + C2H3 => e + e + C2H2 + H^+		! f76 * Bolsig+ C2H3 -> C2H2 H^+
e + C2H2 => e + e + C2H2^+		! f77 * Bolsig+ C2H2 -> C2H2^+
e + C2H2(v5) => e + e + C2H2^+		! f77 * Bolsig+ C2H2(v5) -> C2H2^+
e + C2H2(v2) => e + e + C2H2^+		! f77 * Bolsig+ C2H2(v2) -> C2H2^+
e + C2H2(v13) => e + e + C2H2^+		! f77 * Bolsig+ C2H2(v13) -> C2H2^+
e + C2H2 => e + e + CH + CH^+		! f78 * Bolsig+ C2H2 -> CH CH^+
e + C2H2(v5) => e + e + CH + CH^+		! f78 * Bolsig+ C2H2(v5) -> CH CH^+
e + C2H2(v2) => e + e + CH + CH^+		! f78 * Bolsig+ C2H2(v2) -> CH CH^+
e + C2H2(v13) => e + e + CH + CH^+		! f78 * Bolsig+ C2H2(v13) -> CH CH^+
e + C3H8 => e + C3H7 + H		! f79 * Bolsig+ C3H8 -> C3H7 H
e + C3H8(v1) => e + C3H7 + H		! f79 * Bolsig+ C3H8(v1) -> C3H7 H
e + C3H8(v2) => e + C3H7 + H		! f79 * Bolsig+ C3H8(v2) -> C3H7 H
e + C3H8 => e + C3H6 + H2		! f80 * Bolsig+ C3H8 -> C3H6 H2
e + C3H8(v1) => e + C3H6 + H2		! f80 * Bolsig+ C3H8(v1) -> C3H6 H2
e + C3H8(v2) => e + C3H6 + H2		! f80 * Bolsig+ C3H8(v2) -> C3H6 H2
e + C3H7 => e + C3H6 + H		! f81 * Bolsig+ C3H7 -> C3H6 H
e + C3H8 => e + e + C3H8^+		! f82 * Bolsig+ C3H8 -> C3H8^+
e + C3H8(v1) => e + e + C3H8^+		! f82 * Bolsig+ C3H8(v1) -> C3H8^+
e + C3H8(v2) => e + e + C3H8^+		! f82 * Bolsig+ C3H8(v2) -> C3H8^+
e + C3H8 => e + e + H + C3H7^+		! f83 * Bolsig+ C3H8 -> H C3H7^+
e + C3H8(v1) => e + e + H + C3H7^+		! f83 * Bolsig+ C3H8(v1) -> H C3H7^+
e + C3H8(v2) => e + e + H + C3H7^+		! f83 * Bolsig+ C3H8(v2) -> H C3H7^+
e + C3H8 => e + e + H2 + C3H6^+		! f84 * Bolsig+ C3H8 -> H2 C3H6^+
e + C3H8(v1) => e + e + H2 + C3H6^+		! f84 * Bolsig+ C3H8(v1) -> H2 C3H6^+
e + C3H8(v2) => e + e + H2 + C3H6^+		! f84 * Bolsig+ C3H8(v2) -> H2 C3H6^+
e + C3H7 => e + e + C3H7^+		! f85 * Bolsig+ C3H7 -> C3H7^+
e + C3H7 => e + e + H + C3H6^+		! f86 * Bolsig+ C3H7 -> H C3H6^+
e + C3H6 => e + e + C3H6^+		! f87 * Bolsig+ C3H6 -> C3H6^+
e + C3H6(v) => e + e + C3H6^+		! f87 * Bolsig+ C3H6(v) -> C3H6^+
e + C3H6 => e + C2H2 + CH4		! f88 * Bolsig+ C3H6 -> C2H2 CH4
e + C3H6(v) => e + C2H2 + CH4		! f88 * Bolsig+ C3H6(v) -> C2H2 CH4
e + C3H6 => e + e + C2H2 + CH4^+		! f89 * Bolsig+ C3H6 -> C2H2 CH4^+
e + C3H6(v) => e + e + C2H2 + CH4^+		! f89 * Bolsig+ C3H6(v) -> C2H2 CH4^+

# Ion Recombination Reaction
e + e + CH^+ => e + CH		! f90 * 1.00d0
e + e + CH2^+ => e + CH2		! f91 * 1.00d0
e + e + CH3^+ => e + CH3		! f92 * 1.00d0
e + e + CH4^+ => e + CH4		! f93 * 1.00d0
e + e + C2H2^+ => e + C2H2		! f94 * 1.00d0
e + e + C2H3^+ => e + C2H3		! f95 * 1.00d0
e + e + C2H4^+ => e + C2H4		! f96 * 1.00d0
e + e + C2H5^+ => e + C2H5		! f97 * 1.00d0
e + e + C2H6^+ => e + C2H6		! f98 * 1.00d0
e + e + C3H6^+ => e + C3H6		! f99 * 1.00d0
e + e + C3H7^+ => e + C3H7		! f100 * 1.00d0
e + e + C3H8^+ => e + C3H8		! f101 * 1.00d0

# Gas Phase Reaction
e + CH4^+ => CH3 + H		! f102 * 1.18d-08 * (300./Tgas)**0.5
e + CH4^+ => CH2 + H + H		! f103 * 2.42d-08 * (300./Tgas)**0.5
e + CH4^+ => CH + H2 + H		! f104 * 1.41d-08 * (300./Tgas)**0.5
e + CH3^+ => CH2 + H		! f105 * 2.25d-08 * (300./Tgas)**0.5
e + CH3^+ => CH + H2		! f106 * 7.88d-09 * (300./Tgas)**0.5
e + CH3^+ => CH + H + H		! f107 * 9.00d-09 * (300./Tgas)**0.5
e + CH3^+ => C + H2 + H		! f108 * 1.69d-08 * (300./Tgas)**0.5
e + CH2^+ => CH + H		! f109 * 1.00d-08 * (300./Tgas)**0.5
e + CH2^+ => C + H2		! f110 * 4.82d-09 * (300./Tgas)**0.5
e + CH2^+ => C + H + H		! f111 * 2.53d-08 * (300./Tgas)**0.5
e + CH^+ => C + H		! f112 * 3.23d-08 * (300./Tgas)**0.42
e + C2H6^+ => C2H5 + H		! f113 * 2.19d-08 * (300./Tgas)**0.71
e + C2H6^+ => C2H4 + H + H		! f114 * 3.36d-08 * (300./Tgas)**0.71
e + C2H5^+ => C2H4 + H		! f115 * 7.70d-09 * (300./Tgas)**0.71
e + C2H5^+ => C2H3 + H + H		! f116 * 1.92d-08 * (300./Tgas)**0.71
e + C2H5^+ => C2H2 + H2 + H		! f117 * 1.60d-08 * (300./Tgas)**0.71
e + C2H5^+ => C2H2 + H + H + H		! f118 * 8.98d-09 * (300./Tgas)**0.71
e + C2H5^+ => CH3 + CH2		! f119 * 9.62d-09 * (300./Tgas)**0.71
e + C2H4^+ => C2H3 + H		! f120 * 8.29d-09 * (300./Tgas)**0.71
e + C2H4^+ => C2H2 + H + H		! f121 * 3.43d-08 * (300./Tgas)**0.71
e + C2H3^+ => C2H2 + H		! f122 * 1.34d-08 * (300./Tgas)**0.71
e + C2H2^+ => CH + CH		! f123 * 4.87d-09 * (300./Tgas)**0.71
e + H2^+ => H + H		! f124 * 3.17d21/(6.022d23 * Te**4.5)
e + H3^+ => H + H2		! f125 * 3.17d21/(6.022d23 * Te**4.5)
H2 + H2^+ => H + H3^+		! f126 * 2.11d-09
C2H6 + CH4^+ => CH4 + H2 + C2H4^+		! f127 * 1.91d-9
C2H6(v24) + CH4^+ => CH4 + H2 + C2H4^+		! f127 * 1.91d-9
C2H6(v13) + CH4^+ => CH4 + H2 + C2H4^+		! f127 * 1.91d-9
C2H4 + CH4^+ => CH3 + C2H5^+		! f128 * 4.23d-10