ELEMENTS
e C H
END

SPECIES
e C CH CH^+ CH2 CH2^+ CH3 CH3^+ CH4 CH4(v13) CH4(v24) CH4^+ C2H2 C2H2(v13) C2H2(v2) C2H2(v5) C2H2^+ C2H3 C2H3^+ C2H4 C2H4(v1) C2H4(v2) C2H4^+ C2H5 C2H5^+
C2H6 C2H6(v13) C2H6(v24) C2H6^+ C3H5 C3H6 C3H6(v) C3H6^+ C3H7 C3H7^+ C3H8 C3H8(v1) C3H8(v2) C3H8^+ C4H9 C4H9H C2H C5H12 H H2 H2^+ H3^+ H^+
END

BOLSIG
CH CH2 CH3 CH4 CH4(v13) CH4(v24) C2H2 C2H2(v13) C2H2(v2) C2H2(v5) C2H3 C2H4 C2H4(v1) C2H4(v2) C2H5 C2H6 C2H6(v13) C2H6(v24) C3H6 C3H6(v) C3H7 C3H8 C3H8(v1) C3H8(v2)
END

REACTIONS
# Gas Constant
$ double precision, parameter :: R = 8.314d-3

# Compensation Parameters
$ double precision, parameter :: f0 = 1.2458d-8
$ double precision, parameter :: f1 = 1.4251d-3
$ double precision, parameter :: f2 = 1.0618d0
$ double precision, parameter :: f3 = 8.1332d-2
$ double precision, parameter :: f4 = 4.6983d-2
$ double precision, parameter :: f5 = 8.8891d0
$ double precision, parameter :: f6 = 2.6942d-8
$ double precision, parameter :: f7 = 1.4519d+1
$ double precision, parameter :: f8 = 7.5435d-4
$ double precision, parameter :: f9 = 1.0395d-1
$ double precision, parameter :: f10 = 7.7620d0
$ double precision, parameter :: f11 = 1.0991d-1
$ double precision, parameter :: f12 = 1.1405d0
$ double precision, parameter :: f13 = 2.1305d-7
$ double precision, parameter :: f14 = 8.3221d-3
$ double precision, parameter :: f15 = 1.2271d-7
$ double precision, parameter :: f16 = 1.9487d-1
$ double precision, parameter :: f17 = 4.4241d0
$ double precision, parameter :: f18 = 1.5606d-8
$ double precision, parameter :: f19 = 3.1445d0
$ double precision, parameter :: f20 = 6.1196d-8
$ double precision, parameter :: f21 = 1.7845d-1
$ double precision, parameter :: f22 = 2.4114d-1
$ double precision, parameter :: f23 = 4.7457d-6
$ double precision, parameter :: f24 = 3.6390d-4
$ double precision, parameter :: f25 = 3.1910d-6
$ double precision, parameter :: f26 = 2.1330d-7
$ double precision, parameter :: f27 = 6.6801d-6
$ double precision, parameter :: f28 = 1.0836d-8
$ double precision, parameter :: f29 = 3.7515d-8
$ double precision, parameter :: f30 = 9.6614d+2
$ double precision, parameter :: f31 = 1.8463d-6
$ double precision, parameter :: f32 = 2.6397d-3
$ double precision, parameter :: f33 = 1.9311d+2
$ double precision, parameter :: f34 = 2.4789d-4
$ double precision, parameter :: f35 = 1.3537d-6
$ double precision, parameter :: f36 = 4.5637d-1
$ double precision, parameter :: f37 = 2.1491d-7
$ double precision, parameter :: f38 = 1.0182d-1
$ double precision, parameter :: f39 = 3.8761d+2
$ double precision, parameter :: f40 = 8.3527d-6
$ double precision, parameter :: f41 = 8.5799d-6
$ double precision, parameter :: f42 = 2.2016d-8
$ double precision, parameter :: f43 = 6.9160d-3
$ double precision, parameter :: f44 = 1.3397d-3
$ double precision, parameter :: f45 = 3.2330d0
$ double precision, parameter :: f46 = 6.9552d+1
$ double precision, parameter :: f47 = 3.3890d-6
$ double precision, parameter :: f48 = 1.5235d-3
$ double precision, parameter :: f49 = 1.3395d0
$ double precision, parameter :: f50 = 4.5268d-6
$ double precision, parameter :: f51 = 1.1491d-6
$ double precision, parameter :: f52 = 6.6720d0
$ double precision, parameter :: f53 = 3.3839d-7
$ double precision, parameter :: f54 = 3.7033d-5
$ double precision, parameter :: f55 = 2.1506d-5
$ double precision, parameter :: f56 = 3.3639d-4
$ double precision, parameter :: f57 = 5.4322d-6
$ double precision, parameter :: f58 = 1.6643d0
$ double precision, parameter :: f59 = 5.2446d-2
$ double precision, parameter :: f60 = 4.0453d+2
$ double precision, parameter :: f61 = 9.3059d+2
$ double precision, parameter :: f62 = 2.0315d0
$ double precision, parameter :: f63 = 4.1268d-3
$ double precision, parameter :: f64 = 2.5764d+2
$ double precision, parameter :: f65 = 3.2210d-1
$ double precision, parameter :: f66 = 1.8313d-7
$ double precision, parameter :: f67 = 3.1365d0
$ double precision, parameter :: f68 = 5.1011d-1
$ double precision, parameter :: f69 = 9.2869d-8
$ double precision, parameter :: f70 = 7.3385d-1
$ double precision, parameter :: f71 = 6.7723d0
$ double precision, parameter :: f72 = 8.4856d-3
$ double precision, parameter :: f73 = 2.2897d+2
$ double precision, parameter :: f74 = 1.3838d-7
$ double precision, parameter :: f75 = 3.2717d-7
$ double precision, parameter :: f76 = 1.0189d-4
$ double precision, parameter :: f77 = 3.3777d-7
$ double precision, parameter :: f78 = 3.5660d-4
$ double precision, parameter :: f79 = 4.5454d-8
$ double precision, parameter :: f80 = 3.0756d-7
$ double precision, parameter :: f81 = 1.8321d+1
$ double precision, parameter :: f82 = 2.9603d0
$ double precision, parameter :: f83 = 6.5024d-5
$ double precision, parameter :: f84 = 2.1704d-7
$ double precision, parameter :: f85 = 6.9693d-8
$ double precision, parameter :: f86 = 1.5001d+1
$ double precision, parameter :: f87 = 1.2000d-1
$ double precision, parameter :: f88 = 1.4905d0
$ double precision, parameter :: f89 = 1.8863d-6
$ double precision, parameter :: f90 = 1.8396d-8
$ double precision, parameter :: f91 = 8.9414d-8
$ double precision, parameter :: f92 = 1.0565d+2
$ double precision, parameter :: f93 = 1.6039d-8
$ double precision, parameter :: f94 = 4.8683d-7
$ double precision, parameter :: f95 = 1.5994d+2
$ double precision, parameter :: f96 = 1.6205d-8
$ double precision, parameter :: f97 = 3.1013d-8
$ double precision, parameter :: f98 = 7.4218d-5
$ double precision, parameter :: f99 = 3.7012d-1
$ double precision, parameter :: f100 = 1.0651d-4
$ double precision, parameter :: f101 = 3.5021d+2
$ double precision, parameter :: f102 = 2.0845d-1
$ double precision, parameter :: f103 = 7.3562d0
$ double precision, parameter :: f104 = 9.0589d-5
$ double precision, parameter :: f105 = 1.9519d-8
$ double precision, parameter :: f106 = 1.9952d+2
$ double precision, parameter :: f107 = 7.1667d-5
$ double precision, parameter :: f108 = 3.4507d-1
$ double precision, parameter :: f109 = 3.4521d-2
$ double precision, parameter :: f110 = 1.7650d-7
$ double precision, parameter :: f111 = 1.0039d-1
$ double precision, parameter :: f112 = 1.6987d-2
$ double precision, parameter :: f113 = 1.1590d-2
$ double precision, parameter :: f114 = 9.1674d-7
$ double precision, parameter :: f115 = 1.3323d-2
$ double precision, parameter :: f116 = 2.2299d-3
$ double precision, parameter :: f117 = 3.6164d-7
$ double precision, parameter :: f118 = 1.1507d-5
$ double precision, parameter :: f119 = 1.8693d-1
$ double precision, parameter :: f120 = 2.0603d-1
$ double precision, parameter :: f121 = 2.0336d+1
$ double precision, parameter :: f122 = 4.3850d-5
$ double precision, parameter :: f123 = 2.8227d+2
$ double precision, parameter :: f124 = 4.0444d-1
$ double precision, parameter :: f125 = 4.7197d-4
$ double precision, parameter :: f126 = 2.5554d-6
$ double precision, parameter :: f127 = 1.3611d-2
$ double precision, parameter :: f128 = 2.7497d-7
$ double precision, parameter :: f129 = 4.6987d+1
$ double precision, parameter :: f130 = 1.0669d+1
$ double precision, parameter :: f131 = 1.2911d-5
$ double precision, parameter :: f132 = 1.1589d-3
$ double precision, parameter :: f133 = 1.3137d-8
$ double precision, parameter :: f134 = 1.8361d-1
$ double precision, parameter :: f135 = 1.3207d+1
$ double precision, parameter :: f136 = 1.6924d-5
$ double precision, parameter :: f137 = 1.4548d-5
$ double precision, parameter :: f138 = 1.4524d-7
$ double precision, parameter :: f139 = 9.0032d-2
$ double precision, parameter :: f140 = 4.2041d-5
$ double precision, parameter :: f141 = 7.1218d-4
$ double precision, parameter :: f142 = 6.6223d-1
$ double precision, parameter :: f143 = 1.7933d-1
$ double precision, parameter :: f144 = 2.4430d-6
$ double precision, parameter :: f145 = 1.1820d-6
$ double precision, parameter :: f146 = 2.3041d-5
$ double precision, parameter :: f147 = 1.5526d-8
$ double precision, parameter :: f148 = 4.7975d-7
$ double precision, parameter :: f149 = 3.5522d-8
$ double precision, parameter :: f150 = 1.4461d-1
$ double precision, parameter :: f151 = 9.4197d-7
$ double precision, parameter :: f152 = 7.6602d-6
$ double precision, parameter :: f153 = 3.3770d-8
$ double precision, parameter :: f154 = 1.5090d-2
$ double precision, parameter :: f155 = 3.6804d-2
$ double precision, parameter :: f156 = 2.1770d-7
$ double precision, parameter :: f157 = 1.0061d-7
$ double precision, parameter :: f158 = 1.0446d-3
$ double precision, parameter :: f159 = 7.2138d+2
$ double precision, parameter :: f160 = 2.4510d-1
$ double precision, parameter :: f161 = 3.4027d-5
$ double precision, parameter :: f162 = 4.1652d-3
$ double precision, parameter :: f163 = 1.4276d-3
$ double precision, parameter :: f164 = 7.8616d+1
$ double precision, parameter :: f165 = 1.3038d-2
$ double precision, parameter :: f166 = 3.1410d+2
$ double precision, parameter :: f167 = 1.3145d0
$ double precision, parameter :: f168 = 1.0586d0
$ double precision, parameter :: f169 = 3.7507d0
$ double precision, parameter :: f170 = 3.5508d-4
$ double precision, parameter :: f171 = 4.4852d-2
$ double precision, parameter :: f172 = 1.0655d+1
$ double precision, parameter :: f173 = 3.5105d-6
$ double precision, parameter :: f174 = 7.3339d0
$ double precision, parameter :: f175 = 1.0723d-5
$ double precision, parameter :: f176 = 8.8809d+2
$ double precision, parameter :: f177 = 2.7614d-1
$ double precision, parameter :: f178 = 1.4641d-6
$ double precision, parameter :: f179 = 2.0521d+1
$ double precision, parameter :: f180 = 1.4201d+2
$ double precision, parameter :: f181 = 4.4430d-1
$ double precision, parameter :: f182 = 4.0704d+2
$ double precision, parameter :: f183 = 2.0323d-1
$ double precision, parameter :: f184 = 2.9581d-4
$ double precision, parameter :: f185 = 9.6239d+1
$ double precision, parameter :: f186 = 1.5024d-1
$ double precision, parameter :: f187 = 7.4186d+2
$ double precision, parameter :: f188 = 3.5347d-3
$ double precision, parameter :: f189 = 2.3280d+2
$ double precision, parameter :: f190 = 5.6776d+1
$ double precision, parameter :: f191 = 9.6872d-7
$ double precision, parameter :: f192 = 2.9544d-6
$ double precision, parameter :: f193 = 2.2538d-2
$ double precision, parameter :: f194 = 4.0543d-2
$ double precision, parameter :: f195 = 1.5574d-7
$ double precision, parameter :: f196 = 2.8633d-2
$ double precision, parameter :: f197 = 3.7409d+2
$ double precision, parameter :: f198 = 1.3428d-4
$ double precision, parameter :: f199 = 2.5486d-8
$ double precision, parameter :: f200 = 7.7424d-8
$ double precision, parameter :: f201 = 1.8515d-7
$ double precision, parameter :: f202 = 5.0990d+1
$ double precision, parameter :: f203 = 5.3818d-6
$ double precision, parameter :: f204 = 1.0264d+1
$ double precision, parameter :: f205 = 2.4079d-2
$ double precision, parameter :: f206 = 7.6351d0
$ double precision, parameter :: f207 = 2.3774d-5
$ double precision, parameter :: f208 = 1.8164d+1
$ double precision, parameter :: f209 = 2.4596d-5
$ double precision, parameter :: f210 = 1.4837d0
$ double precision, parameter :: f211 = 3.2903d-2
$ double precision, parameter :: f212 = 9.7982d+2
$ double precision, parameter :: f213 = 6.5314d-1
$ double precision, parameter :: f214 = 7.8342d-1
$ double precision, parameter :: f215 = 4.7218d-2
$ double precision, parameter :: f216 = 1.6243d-5
$ double precision, parameter :: f217 = 3.4612d+1
$ double precision, parameter :: f218 = 3.2988d-7
$ double precision, parameter :: f219 = 3.3759d0
$ double precision, parameter :: f220 = 4.3731d-7
$ double precision, parameter :: f221 = 2.2747d-2
$ double precision, parameter :: f222 = 4.7896d-4
$ double precision, parameter :: f223 = 6.7287d-8
$ double precision, parameter :: f224 = 1.7630d-8
$ double precision, parameter :: f225 = 4.2584d-6
$ double precision, parameter :: f226 = 7.4359d-2
$ double precision, parameter :: f227 = 4.5297d0
$ double precision, parameter :: f228 = 7.5961d0
$ double precision, parameter :: f229 = 1.5699d-8
$ double precision, parameter :: f230 = 1.7378d-2
$ double precision, parameter :: f231 = 3.7859d-8
$ double precision, parameter :: f232 = 2.3922d-8
$ double precision, parameter :: f233 = 5.1883d+1
$ double precision, parameter :: f234 = 8.6501d-5
$ double precision, parameter :: f235 = 1.1007d+1
$ double precision, parameter :: f236 = 8.7113d+1
$ double precision, parameter :: f237 = 4.2295d-3
$ double precision, parameter :: f238 = 6.2412d+1
$ double precision, parameter :: f239 = 4.8126d+2
$ double precision, parameter :: f240 = 4.4024d+1
$ double precision, parameter :: f241 = 1.5430d+1
$ double precision, parameter :: f242 = 1.6207d+1
$ double precision, parameter :: f243 = 1.0654d-6
$ double precision, parameter :: f244 = 6.9921d-8
$ double precision, parameter :: f245 = 2.9914d-8
$ double precision, parameter :: f246 = 1.4310d-3
$ double precision, parameter :: f247 = 4.5190d-7
$ double precision, parameter :: f248 = 5.0093d-4
$ double precision, parameter :: f249 = 1.5513d-5
$ double precision, parameter :: f250 = 1.9076d-2
$ double precision, parameter :: f251 = 6.9027d-4
$ double precision, parameter :: f252 = 2.4257d0
$ double precision, parameter :: f253 = 3.0799d-8
$ double precision, parameter :: f254 = 8.0352d-2
$ double precision, parameter :: f255 = 1.2101d-4
$ double precision, parameter :: f256 = 1.8061d-8
$ double precision, parameter :: f257 = 4.4902d-6
$ double precision, parameter :: f258 = 1.0977d-2
$ double precision, parameter :: f259 = 1.4434d-4
$ double precision, parameter :: f260 = 5.4879d-1
$ double precision, parameter :: f261 = 5.9729d-4
$ double precision, parameter :: f262 = 1.2621d-4
$ double precision, parameter :: f263 = 6.4797d+1
$ double precision, parameter :: f264 = 1.0636d+2
$ double precision, parameter :: f265 = 4.4518d-6
$ double precision, parameter :: f266 = 4.6139d+1
$ double precision, parameter :: f267 = 3.9620d+2
$ double precision, parameter :: f268 = 1.6432d-3
$ double precision, parameter :: f269 = 1.6131d-3
$ double precision, parameter :: f270 = 1.9224d-1
$ double precision, parameter :: f271 = 7.6091d-2
$ double precision, parameter :: f272 = 6.3370d-5
$ double precision, parameter :: f273 = 4.6402d-7
$ double precision, parameter :: f274 = 5.6265d-4
$ double precision, parameter :: f275 = 1.2156d0
$ double precision, parameter :: f276 = 1.6890d+2
$ double precision, parameter :: f277 = 2.8942d-5
$ double precision, parameter :: f278 = 5.4175d+2
$ double precision, parameter :: f279 = 3.0087d+1
$ double precision, parameter :: f280 = 4.7660d-2
$ double precision, parameter :: f281 = 2.3214d-3
$ double precision, parameter :: f282 = 5.8756d-2
$ double precision, parameter :: f283 = 1.1760d-5
$ double precision, parameter :: f284 = 2.8780d-8
$ double precision, parameter :: f285 = 2.3601d-7
$ double precision, parameter :: f286 = 3.0564d+2
$ double precision, parameter :: f287 = 2.2955d-5
$ double precision, parameter :: f288 = 1.9922d-4
$ double precision, parameter :: f289 = 3.8302d-1
$ double precision, parameter :: f290 = 1.1782d-7
$ double precision, parameter :: f291 = 1.2756d+1
$ double precision, parameter :: f292 = 1.0056d-2
$ double precision, parameter :: f293 = 2.0186d-5
$ double precision, parameter :: f294 = 2.4067d-8
$ double precision, parameter :: f295 = 2.3054d-8
$ double precision, parameter :: f296 = 8.9415d-6
$ double precision, parameter :: f297 = 9.0495d0
$ double precision, parameter :: f298 = 1.0607d-7
$ double precision, parameter :: f299 = 5.5483d-5
$ double precision, parameter :: f300 = 3.6077d-1
$ double precision, parameter :: f301 = 3.5846d-8
$ double precision, parameter :: f302 = 3.2824d-6
$ double precision, parameter :: f303 = 1.2984d-3
$ double precision, parameter :: f304 = 2.0508d-7
$ double precision, parameter :: f305 = 1.4574d-4
$ double precision, parameter :: f306 = 1.5654d-3
$ double precision, parameter :: f307 = 3.0373d-8
$ double precision, parameter :: f308 = 1.5882d-2
$ double precision, parameter :: f309 = 2.9795d-1
$ double precision, parameter :: f310 = 1.5648d-8
$ double precision, parameter :: f311 = 3.6434d-4
$ double precision, parameter :: f312 = 6.6095d-7
$ double precision, parameter :: f313 = 3.0919d-4
$ double precision, parameter :: f314 = 6.4136d-7
$ double precision, parameter :: f315 = 2.1081d0

# Electron Collision Reaction
e + CH4 => e + CH4(v24)		! f0 * Bolsig+ CH4 -> CH4(v24)
e + CH4 => e + CH4(v13)		! f1 * Bolsig+ CH4 -> CH4(v13)
e + C2H6 => e + C2H6(v24)		! f2 * Bolsig+ C2H6 -> C2H6(v24)
e + C2H6 => e + C2H6(v13)		! f3 * Bolsig+ C2H6 -> C2H6(v13)
e + C2H4 => e + C2H4(v1)		! f4 * Bolsig+ C2H4 -> C2H4(v1)
e + C2H4 => e + C2H4(v2)		! f5 * Bolsig+ C2H4 -> C2H4(v2)
e + C2H2 => e + C2H2(v5)		! f6 * Bolsig+ C2H2 -> C2H2(v5)
e + C2H2 => e + C2H2(v2)		! f7 * Bolsig+ C2H2 -> C2H2(v2)
e + C2H2 => e + C2H2(v13)		! f8 * Bolsig+ C2H2 -> C2H2(v13)
e + C3H8 => e + C3H8(v1)		! f9 * Bolsig+ C3H8 -> C3H8(v1)
e + C3H8 => e + C3H8(v2)		! f10 * Bolsig+ C3H8 -> C3H8(v2)
e + C3H6 => e + C3H6(v)		! f11 * Bolsig+ C3H6 -> C3H6(v)
e + CH4 => e + CH3 + H		! f12 * Bolsig+ CH4 -> CH3 H
e + CH4(v24) => e + CH3 + H		! f12 * Bolsig+ CH4(v24) -> CH3 H
e + CH4(v13) => e + CH3 + H		! f12 * Bolsig+ CH4(v13) -> CH3 H
e + CH4 => e + CH2 + H2		! f13 * Bolsig+ CH4 -> CH2 H2
e + CH4(v24) => e + CH2 + H2		! f13 * Bolsig+ CH4(v24) -> CH2 H2
e + CH4(v13) => e + CH2 + H2		! f13 * Bolsig+ CH4(v13) -> CH2 H2
e + CH4 => e + CH + H2 + H		! f14 * Bolsig+ CH4 -> CH H2 H
e + CH4(v24) => e + CH + H2 + H		! f14 * Bolsig+ CH4(v24) -> CH H2 H
e + CH4(v13) => e + CH + H2 + H		! f14 * Bolsig+ CH4(v13) -> CH H2 H
e + CH4 => e + C + H2 + H2		! f15 * Bolsig+ CH4 -> C H2 H2
e + CH4(v24) => e + C + H2 + H2		! f15 * Bolsig+ CH4(v24) -> C H2 H2
e + CH4(v13) => e + C + H2 + H2		! f15 * Bolsig+ CH4(v13) -> C H2 H2
e + CH3 => e + CH2 + H		! f16 * Bolsig+ CH3 -> CH2 H
e + CH3 => e + CH + H2		! f17 * Bolsig+ CH3 -> CH H2
e + CH3 => e + C + H2 + H		! f18 * Bolsig+ CH3 -> C H2 H
e + CH2 => e + CH + H		! f19 * Bolsig+ CH2 -> CH H
e + CH2 => e + C + H2		! f20 * Bolsig+ CH2 -> C H2
e + CH2 => e + C + H + H		! f21 * Bolsig+ CH2 -> C H H
e + CH => e + C + H		! f22 * Bolsig+ CH -> C H
e + CH4 => e + e + CH4^+		! f23 * Bolsig+ CH4 -> CH4^+
e + CH4(v24) => e + e + CH4^+		! f23 * Bolsig+ CH4(v24) -> CH4^+
e + CH4(v13) => e + e + CH4^+		! f23 * Bolsig+ CH4(v13) -> CH4^+
e + CH4 => e + e + H + CH3^+		! f24 * Bolsig+ CH4 -> H CH3^+
e + CH4(v24) => e + e + H + CH3^+		! f24 * Bolsig+ CH4(v24) -> H CH3^+
e + CH4(v13) => e + e + H + CH3^+		! f24 * Bolsig+ CH4(v13) -> H CH3^+
e + CH4 => e + e + H2 + CH2^+		! f25 * Bolsig+ CH4 -> H2 CH2^+
e + CH4(v24) => e + e + H2 + CH2^+		! f25 * Bolsig+ CH4(v24) -> H2 CH2^+
e + CH4(v13) => e + e + H2 + CH2^+		! f25 * Bolsig+ CH4(v13) -> H2 CH2^+
e + CH4 => e + e + H2 + H + CH^+		! f26 * Bolsig+ CH4 -> H2 H CH^+
e + CH4(v24) => e + e + H2 + H + CH^+		! f26 * Bolsig+ CH4(v24) -> H2 H CH^+
e + CH4(v13) => e + e + H2 + H + CH^+		! f26 * Bolsig+ CH4(v13) -> H2 H CH^+
e + CH3 => e + e + CH3^+		! f27 * Bolsig+ CH3 -> CH3^+
e + CH3 => e + e + H + CH2^+		! f28 * Bolsig+ CH3 -> H CH2^+
e + CH3 => e + e + H2 + CH^+		! f29 * Bolsig+ CH3 -> H2 CH^+
e + CH2 => e + e + CH2^+		! f30 * Bolsig+ CH2 -> CH2^+
e + CH2 => e + e + H + CH^+		! f31 * Bolsig+ CH2 -> H CH^+
e + CH => e + e + CH^+		! f32 * Bolsig+ CH -> CH^+
e + C2H6 => e + C2H5 + H		! f33 * Bolsig+ C2H6 -> C2H5 H
e + C2H6(v24) => e + C2H5 + H		! f33 * Bolsig+ C2H6(v24) -> C2H5 H
e + C2H6(v13) => e + C2H5 + H		! f33 * Bolsig+ C2H6(v13) -> C2H5 H
e + C2H6 => e + C2H4 + H2		! f34 * Bolsig+ C2H6 -> C2H4 H2
e + C2H6(v24) => e + C2H4 + H2		! f34 * Bolsig+ C2H6(v24) -> C2H4 H2
e + C2H6(v13) => e + C2H4 + H2		! f34 * Bolsig+ C2H6(v13) -> C2H4 H2
e + C2H6 => e + C2H3 + H2 + H		! f35 * Bolsig+ C2H6 -> C2H3 H2 H
e + C2H6(v24) => e + C2H3 + H2 + H		! f35 * Bolsig+ C2H6(v24) -> C2H3 H2 H
e + C2H6(v13) => e + C2H3 + H2 + H		! f35 * Bolsig+ C2H6(v13) -> C2H3 H2 H
e + C2H6 => e + C2H2 + H2 + H2		! f36 * Bolsig+ C2H6 -> C2H2 H2 H2
e + C2H6(v24) => e + C2H2 + H2 + H2		! f36 * Bolsig+ C2H6(v24) -> C2H2 H2 H2
e + C2H6(v13) => e + C2H2 + H2 + H2		! f36 * Bolsig+ C2H6(v13) -> C2H2 H2 H2
e + C2H6 => e + CH4 + CH2		! f37 * Bolsig+ C2H6 -> CH4 CH2
e + C2H6(v24) => e + CH4 + CH2		! f37 * Bolsig+ C2H6(v24) -> CH4 CH2
e + C2H6(v13) => e + CH4 + CH2		! f37 * Bolsig+ C2H6(v13) -> CH4 CH2
e + C2H6 => e + CH3 + CH3		! f38 * Bolsig+ C2H6 -> CH3 CH3
e + C2H6(v24) => e + CH3 + CH3		! f38 * Bolsig+ C2H6(v24) -> CH3 CH3
e + C2H6(v13) => e + CH3 + CH3		! f38 * Bolsig+ C2H6(v13) -> CH3 CH3
e + C2H5 => e + C2H4 + H		! f39 * Bolsig+ C2H5 -> C2H4 H
e + C2H5 => e + C2H3 + H2		! f40 * Bolsig+ C2H5 -> C2H3 H2
e + C2H5 => e + C2H3 + H + H		! f41 * Bolsig+ C2H5 -> C2H3 H H
e + C2H5 => e + C2H2 + H2 + H		! f42 * Bolsig+ C2H5 -> C2H2 H2 H
e + C2H5 => e + CH4 + CH		! f43 * Bolsig+ C2H5 -> CH4 CH
e + C2H5 => e + CH3 + CH2		! f44 * Bolsig+ C2H5 -> CH3 CH2
e + C2H4 => e + C2H3 + H		! f45 * Bolsig+ C2H4 -> C2H3 H
e + C2H4(v1) => e + C2H3 + H		! f45 * Bolsig+ C2H4(v1) -> C2H3 H
e + C2H4(v2) => e + C2H3 + H		! f45 * Bolsig+ C2H4(v2) -> C2H3 H
e + C2H4 => e + C2H2 + H2		! f46 * Bolsig+ C2H4 -> C2H2 H2
e + C2H4(v1) => e + C2H2 + H2		! f46 * Bolsig+ C2H4(v1) -> C2H2 H2
e + C2H4(v2) => e + C2H2 + H2		! f46 * Bolsig+ C2H4(v2) -> C2H2 H2
e + C2H4 => e + C2H2 + H + H		! f47 * Bolsig+ C2H4 -> C2H2 H H
e + C2H4(v1) => e + C2H2 + H + H		! f47 * Bolsig+ C2H4(v1) -> C2H2 H H
e + C2H4(v2) => e + C2H2 + H + H		! f47 * Bolsig+ C2H4(v2) -> C2H2 H H
e + C2H4 => e + CH3 + CH		! f48 * Bolsig+ C2H4 -> CH3 CH
e + C2H4(v1) => e + CH3 + CH		! f48 * Bolsig+ C2H4(v1) -> CH3 CH
e + C2H4(v2) => e + CH3 + CH		! f48 * Bolsig+ C2H4(v2) -> CH3 CH
e + C2H4 => e + CH2 + CH2		! f49 * Bolsig+ C2H4 -> CH2 CH2
e + C2H4(v1) => e + CH2 + CH2		! f49 * Bolsig+ C2H4(v1) -> CH2 CH2
e + C2H4(v2) => e + CH2 + CH2		! f49 * Bolsig+ C2H4(v2) -> CH2 CH2
e + C2H3 => e + C2H2 + H		! f50 * Bolsig+ C2H3 -> C2H2 H
e + C2H3 => e + CH2 + CH		! f51 * Bolsig+ C2H3 -> CH2 CH
e + C2H2 => e + CH + CH		! f52 * Bolsig+ C2H2 -> CH CH
e + C2H2(v5) => e + CH + CH		! f52 * Bolsig+ C2H2(v5) -> CH CH
e + C2H2(v2) => e + CH + CH		! f52 * Bolsig+ C2H2(v2) -> CH CH
e + C2H2(v13) => e + CH + CH		! f52 * Bolsig+ C2H2(v13) -> CH CH
e + C2H6 => e + e + C2H6^+		! f53 * Bolsig+ C2H6 -> C2H6^+
e + C2H6(v24) => e + e + C2H6^+		! f53 * Bolsig+ C2H6(v24) -> C2H6^+
e + C2H6(v13) => e + e + C2H6^+		! f53 * Bolsig+ C2H6(v13) -> C2H6^+
e + C2H6 => e + e + H + C2H5^+		! f54 * Bolsig+ C2H6 -> H C2H5^+
e + C2H6(v24) => e + e + H + C2H5^+		! f54 * Bolsig+ C2H6(v24) -> H C2H5^+
e + C2H6(v13) => e + e + H + C2H5^+		! f54 * Bolsig+ C2H6(v13) -> H C2H5^+
e + C2H6 => e + e + H2 + C2H4^+		! f55 * Bolsig+ C2H6 -> H2 C2H4^+
e + C2H6(v24) => e + e + H2 + C2H4^+		! f55 * Bolsig+ C2H6(v24) -> H2 C2H4^+
e + C2H6(v13) => e + e + H2 + C2H4^+		! f55 * Bolsig+ C2H6(v13) -> H2 C2H4^+
e + C2H6 => e + e + H2 + H + C2H3^+		! f56 * Bolsig+ C2H6 -> H2 H C2H3^+
e + C2H6(v24) => e + e + H2 + H + C2H3^+		! f56 * Bolsig+ C2H6(v24) -> H2 H C2H3^+
e + C2H6(v13) => e + e + H2 + H + C2H3^+		! f56 * Bolsig+ C2H6(v13) -> H2 H C2H3^+
e + C2H6 => e + e + H2 + H2 + C2H2^+		! f57 * Bolsig+ C2H6 -> H2 H2 C2H2^+
e + C2H6(v24) => e + e + H2 + H2 + C2H2^+		! f57 * Bolsig+ C2H6(v24) -> H2 H2 C2H2^+
e + C2H6(v13) => e + e + H2 + H2 + C2H2^+		! f57 * Bolsig+ C2H6(v13) -> H2 H2 C2H2^+
e + C2H6 => e + e + CH3 + CH3^+		! f58 * Bolsig+ C2H6 -> CH3 CH3^+
e + C2H6(v24) => e + e + CH3 + CH3^+		! f58 * Bolsig+ C2H6(v24) -> CH3 CH3^+
e + C2H6(v13) => e + e + CH3 + CH3^+		! f58 * Bolsig+ C2H6(v13) -> CH3 CH3^+
e + C2H6 => e + e + CH4 + CH2^+		! f59 * Bolsig+ C2H6 -> CH4 CH2^+
e + C2H6(v24) => e + e + CH4 + CH2^+		! f59 * Bolsig+ C2H6(v24) -> CH4 CH2^+
e + C2H6(v13) => e + e + CH4 + CH2^+		! f59 * Bolsig+ C2H6(v13) -> CH4 CH2^+
e + C2H5 => e + e + C2H5^+		! f60 * Bolsig+ C2H5 -> C2H5^+
e + C2H5 => e + e + H + C2H4^+		! f61 * Bolsig+ C2H5 -> H C2H4^+
e + C2H5 => e + e + H2 + C2H3^+		! f62 * Bolsig+ C2H5 -> H2 C2H3^+
e + C2H5 => e + e + H2 + H + C2H2^+		! f63 * Bolsig+ C2H5 -> H2 H C2H2^+
e + C2H5 => e + e + CH2 + CH3^+		! f64 * Bolsig+ C2H5 -> CH2 CH3^+
e + C2H5 => e + e + CH3 + CH2^+		! f65 * Bolsig+ C2H5 -> CH3 CH2^+
e + C2H5 => e + e + CH4 + CH^+		! f66 * Bolsig+ C2H5 -> CH4 CH^+
e + C2H4 => e + e + C2H4^+		! f67 * Bolsig+ C2H4 -> C2H4^+
e + C2H4(v1) => e + e + C2H4^+		! f67 * Bolsig+ C2H4(v1) -> C2H4^+
e + C2H4(v2) => e + e + C2H4^+		! f67 * Bolsig+ C2H4(v2) -> C2H4^+
e + C2H4 => e + e + H + C2H3^+		! f68 * Bolsig+ C2H4 -> H C2H3^+
e + C2H4(v1) => e + e + H + C2H3^+		! f68 * Bolsig+ C2H4(v1) -> H C2H3^+
e + C2H4(v2) => e + e + H + C2H3^+		! f68 * Bolsig+ C2H4(v2) -> H C2H3^+
e + C2H4 => e + e + CH + CH3^+		! f69 * Bolsig+ C2H4 -> CH CH3^+
e + C2H4(v1) => e + e + CH + CH3^+		! f69 * Bolsig+ C2H4(v1) -> CH CH3^+
e + C2H4(v2) => e + e + CH + CH3^+		! f69 * Bolsig+ C2H4(v2) -> CH CH3^+
e + C2H4 => e + e + CH2 + CH2^+		! f70 * Bolsig+ C2H4 -> CH2 CH2^+
e + C2H4(v1) => e + e + CH2 + CH2^+		! f70 * Bolsig+ C2H4(v1) -> CH2 CH2^+
e + C2H4(v2) => e + e + CH2 + CH2^+		! f70 * Bolsig+ C2H4(v2) -> CH2 CH2^+
e + C2H4 => e + e + CH3 + CH^+		! f71 * Bolsig+ C2H4 -> CH3 CH^+
e + C2H4(v1) => e + e + CH3 + CH^+		! f71 * Bolsig+ C2H4(v1) -> CH3 CH^+
e + C2H4(v2) => e + e + CH3 + CH^+		! f71 * Bolsig+ C2H4(v2) -> CH3 CH^+
e + C2H3 => e + e + C2H3^+		! f72 * Bolsig+ C2H3 -> C2H3^+
e + C2H3 => e + e + H + C2H2^+		! f73 * Bolsig+ C2H3 -> H C2H2^+
e + C2H3 => e + e + CH + CH2^+		! f74 * Bolsig+ C2H3 -> CH CH2^+
e + C2H3 => e + e + CH2 + CH^+		! f75 * Bolsig+ C2H3 -> CH2 CH^+
e + C2H3 => e + e + C2H2 + H^+		! f76 * Bolsig+ C2H3 -> C2H2 H^+
e + C2H2 => e + e + C2H2^+		! f77 * Bolsig+ C2H2 -> C2H2^+
e + C2H2(v5) => e + e + C2H2^+		! f77 * Bolsig+ C2H2(v5) -> C2H2^+
e + C2H2(v2) => e + e + C2H2^+		! f77 * Bolsig+ C2H2(v2) -> C2H2^+
e + C2H2(v13) => e + e + C2H2^+		! f77 * Bolsig+ C2H2(v13) -> C2H2^+
e + C2H2 => e + e + CH + CH^+		! f78 * Bolsig+ C2H2 -> CH CH^+
e + C2H2(v5) => e + e + CH + CH^+		! f78 * Bolsig+ C2H2(v5) -> CH CH^+
e + C2H2(v2) => e + e + CH + CH^+		! f78 * Bolsig+ C2H2(v2) -> CH CH^+
e + C2H2(v13) => e + e + CH + CH^+		! f78 * Bolsig+ C2H2(v13) -> CH CH^+
e + C3H8 => e + C3H7 + H		! f79 * Bolsig+ C3H8 -> C3H7 H
e + C3H8(v1) => e + C3H7 + H		! f79 * Bolsig+ C3H8(v1) -> C3H7 H
e + C3H8(v2) => e + C3H7 + H		! f79 * Bolsig+ C3H8(v2) -> C3H7 H
e + C3H8 => e + C3H6 + H2		! f80 * Bolsig+ C3H8 -> C3H6 H2
e + C3H8(v1) => e + C3H6 + H2		! f80 * Bolsig+ C3H8(v1) -> C3H6 H2
e + C3H8(v2) => e + C3H6 + H2		! f80 * Bolsig+ C3H8(v2) -> C3H6 H2
e + C3H7 => e + C3H6 + H		! f81 * Bolsig+ C3H7 -> C3H6 H
e + C3H8 => e + e + C3H8^+		! f82 * Bolsig+ C3H8 -> C3H8^+
e + C3H8(v1) => e + e + C3H8^+		! f82 * Bolsig+ C3H8(v1) -> C3H8^+
e + C3H8(v2) => e + e + C3H8^+		! f82 * Bolsig+ C3H8(v2) -> C3H8^+
e + C3H8 => e + e + H + C3H7^+		! f83 * Bolsig+ C3H8 -> H C3H7^+
e + C3H8(v1) => e + e + H + C3H7^+		! f83 * Bolsig+ C3H8(v1) -> H C3H7^+
e + C3H8(v2) => e + e + H + C3H7^+		! f83 * Bolsig+ C3H8(v2) -> H C3H7^+
e + C3H8 => e + e + H2 + C3H6^+		! f84 * Bolsig+ C3H8 -> H2 C3H6^+
e + C3H8(v1) => e + e + H2 + C3H6^+		! f84 * Bolsig+ C3H8(v1) -> H2 C3H6^+
e + C3H8(v2) => e + e + H2 + C3H6^+		! f84 * Bolsig+ C3H8(v2) -> H2 C3H6^+
e + C3H7 => e + e + C3H7^+		! f85 * Bolsig+ C3H7 -> C3H7^+
e + C3H7 => e + e + H + C3H6^+		! f86 * Bolsig+ C3H7 -> H C3H6^+
e + C3H6 => e + e + C3H6^+		! f87 * Bolsig+ C3H6 -> C3H6^+
e + C3H6(v) => e + e + C3H6^+		! f87 * Bolsig+ C3H6(v) -> C3H6^+
e + C3H6 => e + C2H2 + CH4		! f88 * Bolsig+ C3H6 -> C2H2 CH4
e + C3H6(v) => e + C2H2 + CH4		! f88 * Bolsig+ C3H6(v) -> C2H2 CH4
e + C3H6 => e + e + C2H2 + CH4^+		! f89 * Bolsig+ C3H6 -> C2H2 CH4^+
e + C3H6(v) => e + e + C2H2 + CH4^+		! f89 * Bolsig+ C3H6(v) -> C2H2 CH4^+

# Ion Recombination Reaction
e + e + CH^+ => e + CH		! f90 * 1.00d0
e + e + CH2^+ => e + CH2		! f91 * 1.00d0
e + e + CH3^+ => e + CH3		! f92 * 1.00d0
e + e + CH4^+ => e + CH4		! f93 * 1.00d0
e + e + C2H2^+ => e + C2H2		! f94 * 1.00d0
e + e + C2H3^+ => e + C2H3		! f95 * 1.00d0
e + e + C2H4^+ => e + C2H4		! f96 * 1.00d0
e + e + C2H5^+ => e + C2H5		! f97 * 1.00d0
e + e + C2H6^+ => e + C2H6		! f98 * 1.00d0
e + e + C3H6^+ => e + C3H6		! f99 * 1.00d0
e + e + C3H7^+ => e + C3H7		! f100 * 1.00d0
e + e + C3H8^+ => e + C3H8		! f101 * 1.00d0

# Gas Phase Reaction
e + CH4^+ => CH3 + H		! f102 * 1.18d-08 * (300./Tgas)**0.5
e + CH4^+ => CH2 + H + H		! f103 * 2.42d-08 * (300./Tgas)**0.5
e + CH4^+ => CH + H2 + H		! f104 * 1.41d-08 * (300./Tgas)**0.5
e + CH3^+ => CH2 + H		! f105 * 2.25d-08 * (300./Tgas)**0.5
e + CH3^+ => CH + H2		! f106 * 7.88d-09 * (300./Tgas)**0.5
e + CH3^+ => CH + H + H		! f107 * 9.00d-09 * (300./Tgas)**0.5
e + CH3^+ => C + H2 + H		! f108 * 1.69d-08 * (300./Tgas)**0.5
e + CH2^+ => CH + H		! f109 * 1.00d-08 * (300./Tgas)**0.5
e + CH2^+ => C + H2		! f110 * 4.82d-09 * (300./Tgas)**0.5
e + CH2^+ => C + H + H		! f111 * 2.53d-08 * (300./Tgas)**0.5
e + CH^+ => C + H		! f112 * 3.23d-08 * (300./Tgas)**0.42
e + C2H6^+ => C2H5 + H		! f113 * 2.19d-08 * (300./Tgas)**0.71
e + C2H6^+ => C2H4 + H + H		! f114 * 3.36d-08 * (300./Tgas)**0.71
e + C2H5^+ => C2H4 + H		! f115 * 7.70d-09 * (300./Tgas)**0.71
e + C2H5^+ => C2H3 + H + H		! f116 * 1.92d-08 * (300./Tgas)**0.71
e + C2H5^+ => C2H2 + H2 + H		! f117 * 1.60d-08 * (300./Tgas)**0.71
e + C2H5^+ => C2H2 + H + H + H		! f118 * 8.98d-09 * (300./Tgas)**0.71
e + C2H5^+ => CH3 + CH2		! f119 * 9.62d-09 * (300./Tgas)**0.71
e + C2H4^+ => C2H3 + H		! f120 * 8.29d-09 * (300./Tgas)**0.71
e + C2H4^+ => C2H2 + H + H		! f121 * 3.43d-08 * (300./Tgas)**0.71
e + C2H3^+ => C2H2 + H		! f122 * 1.34d-08 * (300./Tgas)**0.71
e + C2H2^+ => CH + CH		! f123 * 4.87d-09 * (300./Tgas)**0.71
e + H2^+ => H + H		! f124 * 3.17d21/(6.022d23 * Te**4.5)
e + H3^+ => H + H2		! f125 * 3.17d21/(6.022d23 * Te**4.5)
H2 + H2^+ => H + H3^+		! f126 * 2.11d-09
C2H6 + CH4^+ => CH4 + H2 + C2H4^+		! f127 * 1.91d-9
C2H6(v24) + CH4^+ => CH4 + H2 + C2H4^+		! f127 * 1.91d-9
C2H6(v13) + CH4^+ => CH4 + H2 + C2H4^+		! f127 * 1.91d-9
C2H4 + CH4^+ => CH3 + C2H5^+		! f128 * 4.23d-10