ELEMENTS
e C H
END

SPECIES
e C CH CH^+ CH2 CH2^+ CH3 CH3^+ CH4 CH4(v13) CH4(v24) CH4^+ C2H2 C2H2(v13) C2H2(v2) C2H2(v5) C2H2^+ C2H3 C2H3^+ C2H4 C2H4(v1) C2H4(v2) C2H4^+ C2H5 C2H5^+
C2H6 C2H6(v13) C2H6(v24) C2H6^+ C3H5 C3H6 C3H6(v) C3H6^+ C3H7 C3H7^+ C3H8 C3H8(v1) C3H8(v2) C3H8^+ C4H9 C4H9H C2H C5H12 H H2 H2^+ H3^+ H^+
END

BOLSIG
CH CH2 CH3 CH4 CH4(v13) CH4(v24) C2H2 C2H2(v13) C2H2(v2) C2H2(v5) C2H3 C2H4 C2H4(v1) C2H4(v2) C2H5 C2H6 C2H6(v13) C2H6(v24) C3H6 C3H6(v) C3H7 C3H8 C3H8(v1) C3H8(v2)
END

REACTIONS
# Gas Constant
$ double precision, parameter :: R = 8.314d-3

# Compensation Parameters
$ double precision, parameter :: f0 = 1.6596d0
$ double precision, parameter :: f1 = 6.8607d0
$ double precision, parameter :: f2 = 3.9996d-2
$ double precision, parameter :: f3 = 2.6367d+1
$ double precision, parameter :: f4 = 9.1761d-6
$ double precision, parameter :: f5 = 1.8679d+1
$ double precision, parameter :: f6 = 5.0128d-5
$ double precision, parameter :: f7 = 2.6509d+1
$ double precision, parameter :: f8 = 2.4886d+1
$ double precision, parameter :: f9 = 2.1228d+2
$ double precision, parameter :: f10 = 2.6233d-2
$ double precision, parameter :: f11 = 1.7307d-2
$ double precision, parameter :: f12 = 8.0292d-7
$ double precision, parameter :: f13 = 8.9610d0
$ double precision, parameter :: f14 = 3.4842d-5
$ double precision, parameter :: f15 = 2.4106d-8
$ double precision, parameter :: f16 = 2.9876d-1
$ double precision, parameter :: f17 = 6.5959d+2
$ double precision, parameter :: f18 = 5.7126d0
$ double precision, parameter :: f19 = 3.6093d-2
$ double precision, parameter :: f20 = 8.5608d-7
$ double precision, parameter :: f21 = 8.9950d-4
$ double precision, parameter :: f22 = 2.3380d0
$ double precision, parameter :: f23 = 1.7632d-1
$ double precision, parameter :: f24 = 6.3437d-4
$ double precision, parameter :: f25 = 2.9196d-5
$ double precision, parameter :: f26 = 9.1164d-5
$ double precision, parameter :: f27 = 4.7899d-5
$ double precision, parameter :: f28 = 3.2038d0
$ double precision, parameter :: f29 = 2.6361d-8
$ double precision, parameter :: f30 = 4.6642d-2
$ double precision, parameter :: f31 = 6.5954d-1
$ double precision, parameter :: f32 = 4.3146d-3
$ double precision, parameter :: f33 = 6.8077d-7
$ double precision, parameter :: f34 = 7.1840d-2
$ double precision, parameter :: f35 = 1.6082d-6
$ double precision, parameter :: f36 = 6.9774d-3
$ double precision, parameter :: f37 = 8.2630d-1
$ double precision, parameter :: f38 = 2.6182d-5
$ double precision, parameter :: f39 = 1.4810d-2
$ double precision, parameter :: f40 = 2.5239d-7
$ double precision, parameter :: f41 = 1.4016d-4
$ double precision, parameter :: f42 = 6.4159d-4
$ double precision, parameter :: f43 = 8.2937d+2
$ double precision, parameter :: f44 = 4.3403d+1
$ double precision, parameter :: f45 = 7.8865d0
$ double precision, parameter :: f46 = 1.7216d-5
$ double precision, parameter :: f47 = 3.7299d-3
$ double precision, parameter :: f48 = 1.2660d+1
$ double precision, parameter :: f49 = 5.4884d-2
$ double precision, parameter :: f50 = 5.6073d-2
$ double precision, parameter :: f51 = 1.3443d0
$ double precision, parameter :: f52 = 4.5229d-5
$ double precision, parameter :: f53 = 7.1399d-4
$ double precision, parameter :: f54 = 9.7294d-2
$ double precision, parameter :: f55 = 3.4626d0
$ double precision, parameter :: f56 = 2.4304d-6
$ double precision, parameter :: f57 = 8.6814d-6
$ double precision, parameter :: f58 = 4.1861d-2
$ double precision, parameter :: f59 = 1.3086d-8
$ double precision, parameter :: f60 = 8.4501d-2
$ double precision, parameter :: f61 = 1.3445d-5
$ double precision, parameter :: f62 = 3.4836d+2
$ double precision, parameter :: f63 = 8.1772d-6
$ double precision, parameter :: f64 = 3.8872d-2
$ double precision, parameter :: f65 = 7.0628d-7
$ double precision, parameter :: f66 = 5.4549d+2
$ double precision, parameter :: f67 = 1.7421d-7
$ double precision, parameter :: f68 = 1.2345d-2
$ double precision, parameter :: f69 = 3.1604d-3
$ double precision, parameter :: f70 = 7.5658d-3
$ double precision, parameter :: f71 = 8.9379d-4
$ double precision, parameter :: f72 = 1.8977d+1
$ double precision, parameter :: f73 = 1.7298d0
$ double precision, parameter :: f74 = 2.3932d-6
$ double precision, parameter :: f75 = 4.1535d-4
$ double precision, parameter :: f76 = 1.4670d-7
$ double precision, parameter :: f77 = 7.3397d+1
$ double precision, parameter :: f78 = 1.4699d-4
$ double precision, parameter :: f79 = 1.1482d-1
$ double precision, parameter :: f80 = 3.5243d-7
$ double precision, parameter :: f81 = 4.4517d-8
$ double precision, parameter :: f82 = 4.8663d+2
$ double precision, parameter :: f83 = 1.3100d-1
$ double precision, parameter :: f84 = 1.0667d+2
$ double precision, parameter :: f85 = 2.0962d-1
$ double precision, parameter :: f86 = 4.3900d0
$ double precision, parameter :: f87 = 3.6014d-1
$ double precision, parameter :: f88 = 1.2341d-6
$ double precision, parameter :: f89 = 1.1011d+2
$ double precision, parameter :: f90 = 3.5867d+1
$ double precision, parameter :: f91 = 1.8019d-7
$ double precision, parameter :: f92 = 3.4957d-3
$ double precision, parameter :: f93 = 1.5776d-7
$ double precision, parameter :: f94 = 1.8320d-4
$ double precision, parameter :: f95 = 3.0020d-8
$ double precision, parameter :: f96 = 2.6242d-1
$ double precision, parameter :: f97 = 8.5857d+1
$ double precision, parameter :: f98 = 3.3069d-8
$ double precision, parameter :: f99 = 5.7293d-3
$ double precision, parameter :: f100 = 2.2920d-4
$ double precision, parameter :: f101 = 1.2116d+2
$ double precision, parameter :: f102 = 3.3919d-2
$ double precision, parameter :: f103 = 2.6488d+1
$ double precision, parameter :: f104 = 2.3806d-4
$ double precision, parameter :: f105 = 1.7106d-6
$ double precision, parameter :: f106 = 9.0848d-5
$ double precision, parameter :: f107 = 3.3830d-6
$ double precision, parameter :: f108 = 6.8390d-5
$ double precision, parameter :: f109 = 1.3072d-8
$ double precision, parameter :: f110 = 1.8427d-7
$ double precision, parameter :: f111 = 1.3333d-1
$ double precision, parameter :: f112 = 7.6294d+1
$ double precision, parameter :: f113 = 1.1475d+1
$ double precision, parameter :: f114 = 1.2727d-5
$ double precision, parameter :: f115 = 2.6676d0
$ double precision, parameter :: f116 = 4.2083d-7
$ double precision, parameter :: f117 = 7.3599d-7
$ double precision, parameter :: f118 = 3.3371d+1
$ double precision, parameter :: f119 = 1.6615d-6
$ double precision, parameter :: f120 = 3.5913d+1
$ double precision, parameter :: f121 = 2.1769d-4
$ double precision, parameter :: f122 = 5.0839d-6
$ double precision, parameter :: f123 = 2.2635d-2
$ double precision, parameter :: f124 = 1.2388d-6
$ double precision, parameter :: f125 = 1.8490d-2
$ double precision, parameter :: f126 = 1.1449d-3
$ double precision, parameter :: f127 = 2.3070d-2
$ double precision, parameter :: f128 = 1.6326d+1
$ double precision, parameter :: f129 = 1.9440d+2
$ double precision, parameter :: f130 = 1.5480d0
$ double precision, parameter :: f131 = 2.3310d-7
$ double precision, parameter :: f132 = 1.0496d+1
$ double precision, parameter :: f133 = 5.0109d0
$ double precision, parameter :: f134 = 2.3880d+2
$ double precision, parameter :: f135 = 1.6844d-1
$ double precision, parameter :: f136 = 4.6276d-4
$ double precision, parameter :: f137 = 2.8096d-6
$ double precision, parameter :: f138 = 7.5425d+1
$ double precision, parameter :: f139 = 2.1552d-6
$ double precision, parameter :: f140 = 6.3594d-3
$ double precision, parameter :: f141 = 4.4598d-1
$ double precision, parameter :: f142 = 6.8044d-3
$ double precision, parameter :: f143 = 1.1563d0
$ double precision, parameter :: f144 = 2.1774d-5
$ double precision, parameter :: f145 = 1.8109d-6
$ double precision, parameter :: f146 = 7.4816d0
$ double precision, parameter :: f147 = 2.2145d-2
$ double precision, parameter :: f148 = 2.9748d0
$ double precision, parameter :: f149 = 4.7358d+1
$ double precision, parameter :: f150 = 4.5945d-7
$ double precision, parameter :: f151 = 1.4579d-5
$ double precision, parameter :: f152 = 5.0241d-8
$ double precision, parameter :: f153 = 8.8963d-1
$ double precision, parameter :: f154 = 4.3324d-7
$ double precision, parameter :: f155 = 8.3034d0
$ double precision, parameter :: f156 = 2.3731d-2
$ double precision, parameter :: f157 = 1.5000d-6
$ double precision, parameter :: f158 = 1.1109d-5
$ double precision, parameter :: f159 = 5.4673d-5
$ double precision, parameter :: f160 = 1.0173d-5
$ double precision, parameter :: f161 = 4.5346d-3
$ double precision, parameter :: f162 = 9.6391d-6
$ double precision, parameter :: f163 = 2.6539d-5
$ double precision, parameter :: f164 = 3.2363d+1
$ double precision, parameter :: f165 = 1.0970d0
$ double precision, parameter :: f166 = 4.7326d-1
$ double precision, parameter :: f167 = 1.2202d-1
$ double precision, parameter :: f168 = 3.6880d-6
$ double precision, parameter :: f169 = 1.9884d-6
$ double precision, parameter :: f170 = 4.2423d-1
$ double precision, parameter :: f171 = 3.2296d-7
$ double precision, parameter :: f172 = 2.8893d-8
$ double precision, parameter :: f173 = 4.1651d+1
$ double precision, parameter :: f174 = 2.4845d-1
$ double precision, parameter :: f175 = 5.0670d0
$ double precision, parameter :: f176 = 2.2938d+1
$ double precision, parameter :: f177 = 1.0894d-8
$ double precision, parameter :: f178 = 2.1378d-3
$ double precision, parameter :: f179 = 2.9629d0
$ double precision, parameter :: f180 = 4.4066d+1
$ double precision, parameter :: f181 = 2.3975d-3
$ double precision, parameter :: f182 = 8.2580d-3
$ double precision, parameter :: f183 = 1.1411d-6
$ double precision, parameter :: f184 = 1.9394d-2
$ double precision, parameter :: f185 = 1.2297d+1
$ double precision, parameter :: f186 = 2.3011d-4
$ double precision, parameter :: f187 = 6.3792d-3
$ double precision, parameter :: f188 = 1.8145d-7
$ double precision, parameter :: f189 = 6.8598d-5
$ double precision, parameter :: f190 = 5.1117d-6
$ double precision, parameter :: f191 = 2.5902d-8
$ double precision, parameter :: f192 = 3.0471d-2
$ double precision, parameter :: f193 = 4.9405d-4
$ double precision, parameter :: f194 = 5.4105d-6
$ double precision, parameter :: f195 = 1.2624d-4
$ double precision, parameter :: f196 = 2.1036d0
$ double precision, parameter :: f197 = 8.1534d-7
$ double precision, parameter :: f198 = 5.0910d-5
$ double precision, parameter :: f199 = 1.1247d-2
$ double precision, parameter :: f200 = 4.7146d-5
$ double precision, parameter :: f201 = 2.4448d-1
$ double precision, parameter :: f202 = 3.1290d+1
$ double precision, parameter :: f203 = 1.3408d0
$ double precision, parameter :: f204 = 1.1906d-5
$ double precision, parameter :: f205 = 2.8856d-2
$ double precision, parameter :: f206 = 1.8134d-3
$ double precision, parameter :: f207 = 9.2093d-1
$ double precision, parameter :: f208 = 1.5413d-4
$ double precision, parameter :: f209 = 1.6313d-8
$ double precision, parameter :: f210 = 2.1572d-7
$ double precision, parameter :: f211 = 1.0760d-1
$ double precision, parameter :: f212 = 3.6112d-2
$ double precision, parameter :: f213 = 1.8964d-8
$ double precision, parameter :: f214 = 4.6917d-5
$ double precision, parameter :: f215 = 5.7373d-6
$ double precision, parameter :: f216 = 1.6592d-6
$ double precision, parameter :: f217 = 6.7910d-7
$ double precision, parameter :: f218 = 9.3274d-2
$ double precision, parameter :: f219 = 2.4482d-2
$ double precision, parameter :: f220 = 2.9538d-7
$ double precision, parameter :: f221 = 6.5570d-5
$ double precision, parameter :: f222 = 9.2141d-2
$ double precision, parameter :: f223 = 3.2663d-2
$ double precision, parameter :: f224 = 3.5201d-3
$ double precision, parameter :: f225 = 3.3517d-5
$ double precision, parameter :: f226 = 1.2629d-7
$ double precision, parameter :: f227 = 1.0495d-5
$ double precision, parameter :: f228 = 5.9877d-7
$ double precision, parameter :: f229 = 1.5706d-7
$ double precision, parameter :: f230 = 1.1673d+2
$ double precision, parameter :: f231 = 7.6437d-5
$ double precision, parameter :: f232 = 1.1737d0
$ double precision, parameter :: f233 = 4.2928d-2
$ double precision, parameter :: f234 = 4.4124d-2
$ double precision, parameter :: f235 = 6.4978d-7
$ double precision, parameter :: f236 = 2.5809d-5
$ double precision, parameter :: f237 = 1.5388d+1
$ double precision, parameter :: f238 = 3.6146d-6
$ double precision, parameter :: f239 = 5.6837d-7
$ double precision, parameter :: f240 = 3.9566d-8
$ double precision, parameter :: f241 = 1.6482d-5
$ double precision, parameter :: f242 = 1.1604d-6
$ double precision, parameter :: f243 = 1.4191d0
$ double precision, parameter :: f244 = 7.2546d-3
$ double precision, parameter :: f245 = 1.2283d-7
$ double precision, parameter :: f246 = 2.3489d+2
$ double precision, parameter :: f247 = 1.1087d-6
$ double precision, parameter :: f248 = 3.8880d-4
$ double precision, parameter :: f249 = 5.3196d-6
$ double precision, parameter :: f250 = 1.2773d-5
$ double precision, parameter :: f251 = 8.6935d-8
$ double precision, parameter :: f252 = 3.6741d-6
$ double precision, parameter :: f253 = 2.2778d+1
$ double precision, parameter :: f254 = 6.3678d+2
$ double precision, parameter :: f255 = 5.8295d-1
$ double precision, parameter :: f256 = 1.2203d-1
$ double precision, parameter :: f257 = 5.3119d-2
$ double precision, parameter :: f258 = 3.9358d-7
$ double precision, parameter :: f259 = 8.5586d-6
$ double precision, parameter :: f260 = 3.0576d-3
$ double precision, parameter :: f261 = 2.2789d-8
$ double precision, parameter :: f262 = 1.2915d0
$ double precision, parameter :: f263 = 8.3001d-1
$ double precision, parameter :: f264 = 8.9981d-5
$ double precision, parameter :: f265 = 1.7642d-2
$ double precision, parameter :: f266 = 8.0546d-4
$ double precision, parameter :: f267 = 3.8136d0
$ double precision, parameter :: f268 = 1.0805d+1
$ double precision, parameter :: f269 = 1.1243d-2
$ double precision, parameter :: f270 = 2.6450d0
$ double precision, parameter :: f271 = 1.9063d-1
$ double precision, parameter :: f272 = 5.1250d-4
$ double precision, parameter :: f273 = 8.2741d+2
$ double precision, parameter :: f274 = 8.5705d-2
$ double precision, parameter :: f275 = 4.3994d-7
$ double precision, parameter :: f276 = 1.2605d-7
$ double precision, parameter :: f277 = 3.6932d-6
$ double precision, parameter :: f278 = 6.3286d-3
$ double precision, parameter :: f279 = 2.8063d+1
$ double precision, parameter :: f280 = 2.3038d-6
$ double precision, parameter :: f281 = 1.2221d-5
$ double precision, parameter :: f282 = 5.1575d-4
$ double precision, parameter :: f283 = 2.3924d0
$ double precision, parameter :: f284 = 1.8920d-8
$ double precision, parameter :: f285 = 3.4645d+1
$ double precision, parameter :: f286 = 1.6564d-7
$ double precision, parameter :: f287 = 6.5938d-6
$ double precision, parameter :: f288 = 6.5667d-8
$ double precision, parameter :: f289 = 2.2849d+2
$ double precision, parameter :: f290 = 5.7284d+2
$ double precision, parameter :: f291 = 1.8212d-6
$ double precision, parameter :: f292 = 1.0891d-4
$ double precision, parameter :: f293 = 2.0260d-1
$ double precision, parameter :: f294 = 3.5670d-7
$ double precision, parameter :: f295 = 7.6957d-8
$ double precision, parameter :: f296 = 1.9366d-6
$ double precision, parameter :: f297 = 5.4857d0
$ double precision, parameter :: f298 = 2.8646d-4
$ double precision, parameter :: f299 = 1.4127d+1
$ double precision, parameter :: f300 = 1.7732d-2
$ double precision, parameter :: f301 = 1.0325d-7
$ double precision, parameter :: f302 = 3.4745d-3
$ double precision, parameter :: f303 = 1.5809d+1
$ double precision, parameter :: f304 = 1.6273d+1
$ double precision, parameter :: f305 = 1.6861d-7
$ double precision, parameter :: f306 = 1.0781d-7
$ double precision, parameter :: f307 = 7.3281d-6
$ double precision, parameter :: f308 = 1.4932d-3
$ double precision, parameter :: f309 = 2.1863d-7
$ double precision, parameter :: f310 = 1.0498d-1
$ double precision, parameter :: f311 = 7.8419d-7
$ double precision, parameter :: f312 = 3.3365d-3
$ double precision, parameter :: f313 = 1.1278d-4
$ double precision, parameter :: f314 = 1.2467d-6
$ double precision, parameter :: f315 = 9.6508d-5

# Electron Collision Reaction
e + CH4 => e + CH4(v24)		! f0 * Bolsig+ CH4 -> CH4(v24)
e + CH4 => e + CH4(v13)		! f1 * Bolsig+ CH4 -> CH4(v13)
e + C2H6 => e + C2H6(v24)		! f2 * Bolsig+ C2H6 -> C2H6(v24)
e + C2H6 => e + C2H6(v13)		! f3 * Bolsig+ C2H6 -> C2H6(v13)
e + C2H4 => e + C2H4(v1)		! f4 * Bolsig+ C2H4 -> C2H4(v1)
e + C2H4 => e + C2H4(v2)		! f5 * Bolsig+ C2H4 -> C2H4(v2)
e + C2H2 => e + C2H2(v5)		! f6 * Bolsig+ C2H2 -> C2H2(v5)
e + C2H2 => e + C2H2(v2)		! f7 * Bolsig+ C2H2 -> C2H2(v2)
e + C2H2 => e + C2H2(v13)		! f8 * Bolsig+ C2H2 -> C2H2(v13)
e + C3H8 => e + C3H8(v1)		! f9 * Bolsig+ C3H8 -> C3H8(v1)
e + C3H8 => e + C3H8(v2)		! f10 * Bolsig+ C3H8 -> C3H8(v2)
e + C3H6 => e + C3H6(v)		! f11 * Bolsig+ C3H6 -> C3H6(v)
e + CH4 => e + CH3 + H		! f12 * Bolsig+ CH4 -> CH3 H
e + CH4(v24) => e + CH3 + H		! f12 * Bolsig+ CH4(v24) -> CH3 H
e + CH4(v13) => e + CH3 + H		! f12 * Bolsig+ CH4(v13) -> CH3 H
e + CH4 => e + CH2 + H2		! f13 * Bolsig+ CH4 -> CH2 H2
e + CH4(v24) => e + CH2 + H2		! f13 * Bolsig+ CH4(v24) -> CH2 H2
e + CH4(v13) => e + CH2 + H2		! f13 * Bolsig+ CH4(v13) -> CH2 H2
e + CH4 => e + CH + H2 + H		! f14 * Bolsig+ CH4 -> CH H2 H
e + CH4(v24) => e + CH + H2 + H		! f14 * Bolsig+ CH4(v24) -> CH H2 H
e + CH4(v13) => e + CH + H2 + H		! f14 * Bolsig+ CH4(v13) -> CH H2 H
e + CH4 => e + C + H2 + H2		! f15 * Bolsig+ CH4 -> C H2 H2
e + CH4(v24) => e + C + H2 + H2		! f15 * Bolsig+ CH4(v24) -> C H2 H2
e + CH4(v13) => e + C + H2 + H2		! f15 * Bolsig+ CH4(v13) -> C H2 H2
e + CH3 => e + CH2 + H		! f16 * Bolsig+ CH3 -> CH2 H
e + CH3 => e + CH + H2		! f17 * Bolsig+ CH3 -> CH H2
e + CH3 => e + C + H2 + H		! f18 * Bolsig+ CH3 -> C H2 H
e + CH2 => e + CH + H		! f19 * Bolsig+ CH2 -> CH H
e + CH2 => e + C + H2		! f20 * Bolsig+ CH2 -> C H2
e + CH2 => e + C + H + H		! f21 * Bolsig+ CH2 -> C H H
e + CH => e + C + H		! f22 * Bolsig+ CH -> C H
e + CH4 => e + e + CH4^+		! f23 * Bolsig+ CH4 -> CH4^+
e + CH4(v24) => e + e + CH4^+		! f23 * Bolsig+ CH4(v24) -> CH4^+
e + CH4(v13) => e + e + CH4^+		! f23 * Bolsig+ CH4(v13) -> CH4^+
e + CH4 => e + e + H + CH3^+		! f24 * Bolsig+ CH4 -> H CH3^+
e + CH4(v24) => e + e + H + CH3^+		! f24 * Bolsig+ CH4(v24) -> H CH3^+
e + CH4(v13) => e + e + H + CH3^+		! f24 * Bolsig+ CH4(v13) -> H CH3^+
e + CH4 => e + e + H2 + CH2^+		! f25 * Bolsig+ CH4 -> H2 CH2^+
e + CH4(v24) => e + e + H2 + CH2^+		! f25 * Bolsig+ CH4(v24) -> H2 CH2^+
e + CH4(v13) => e + e + H2 + CH2^+		! f25 * Bolsig+ CH4(v13) -> H2 CH2^+
e + CH4 => e + e + H2 + H + CH^+		! f26 * Bolsig+ CH4 -> H2 H CH^+
e + CH4(v24) => e + e + H2 + H + CH^+		! f26 * Bolsig+ CH4(v24) -> H2 H CH^+
e + CH4(v13) => e + e + H2 + H + CH^+		! f26 * Bolsig+ CH4(v13) -> H2 H CH^+
e + CH3 => e + e + CH3^+		! f27 * Bolsig+ CH3 -> CH3^+
e + CH3 => e + e + H + CH2^+		! f28 * Bolsig+ CH3 -> H CH2^+
e + CH3 => e + e + H2 + CH^+		! f29 * Bolsig+ CH3 -> H2 CH^+
e + CH2 => e + e + CH2^+		! f30 * Bolsig+ CH2 -> CH2^+
e + CH2 => e + e + H + CH^+		! f31 * Bolsig+ CH2 -> H CH^+
e + CH => e + e + CH^+		! f32 * Bolsig+ CH -> CH^+
e + C2H6 => e + C2H5 + H		! f33 * Bolsig+ C2H6 -> C2H5 H
e + C2H6(v24) => e + C2H5 + H		! f33 * Bolsig+ C2H6(v24) -> C2H5 H
e + C2H6(v13) => e + C2H5 + H		! f33 * Bolsig+ C2H6(v13) -> C2H5 H
e + C2H6 => e + C2H4 + H2		! f34 * Bolsig+ C2H6 -> C2H4 H2
e + C2H6(v24) => e + C2H4 + H2		! f34 * Bolsig+ C2H6(v24) -> C2H4 H2
e + C2H6(v13) => e + C2H4 + H2		! f34 * Bolsig+ C2H6(v13) -> C2H4 H2
e + C2H6 => e + C2H3 + H2 + H		! f35 * Bolsig+ C2H6 -> C2H3 H2 H
e + C2H6(v24) => e + C2H3 + H2 + H		! f35 * Bolsig+ C2H6(v24) -> C2H3 H2 H
e + C2H6(v13) => e + C2H3 + H2 + H		! f35 * Bolsig+ C2H6(v13) -> C2H3 H2 H
e + C2H6 => e + C2H2 + H2 + H2		! f36 * Bolsig+ C2H6 -> C2H2 H2 H2
e + C2H6(v24) => e + C2H2 + H2 + H2		! f36 * Bolsig+ C2H6(v24) -> C2H2 H2 H2
e + C2H6(v13) => e + C2H2 + H2 + H2		! f36 * Bolsig+ C2H6(v13) -> C2H2 H2 H2
e + C2H6 => e + CH4 + CH2		! f37 * Bolsig+ C2H6 -> CH4 CH2
e + C2H6(v24) => e + CH4 + CH2		! f37 * Bolsig+ C2H6(v24) -> CH4 CH2
e + C2H6(v13) => e + CH4 + CH2		! f37 * Bolsig+ C2H6(v13) -> CH4 CH2
e + C2H6 => e + CH3 + CH3		! f38 * Bolsig+ C2H6 -> CH3 CH3
e + C2H6(v24) => e + CH3 + CH3		! f38 * Bolsig+ C2H6(v24) -> CH3 CH3
e + C2H6(v13) => e + CH3 + CH3		! f38 * Bolsig+ C2H6(v13) -> CH3 CH3
e + C2H5 => e + C2H4 + H		! f39 * Bolsig+ C2H5 -> C2H4 H
e + C2H5 => e + C2H3 + H2		! f40 * Bolsig+ C2H5 -> C2H3 H2
e + C2H5 => e + C2H3 + H + H		! f41 * Bolsig+ C2H5 -> C2H3 H H
e + C2H5 => e + C2H2 + H2 + H		! f42 * Bolsig+ C2H5 -> C2H2 H2 H
e + C2H5 => e + CH4 + CH		! f43 * Bolsig+ C2H5 -> CH4 CH
e + C2H5 => e + CH3 + CH2		! f44 * Bolsig+ C2H5 -> CH3 CH2
e + C2H4 => e + C2H3 + H		! f45 * Bolsig+ C2H4 -> C2H3 H
e + C2H4(v1) => e + C2H3 + H		! f45 * Bolsig+ C2H4(v1) -> C2H3 H
e + C2H4(v2) => e + C2H3 + H		! f45 * Bolsig+ C2H4(v2) -> C2H3 H
e + C2H4 => e + C2H2 + H2		! f46 * Bolsig+ C2H4 -> C2H2 H2
e + C2H4(v1) => e + C2H2 + H2		! f46 * Bolsig+ C2H4(v1) -> C2H2 H2
e + C2H4(v2) => e + C2H2 + H2		! f46 * Bolsig+ C2H4(v2) -> C2H2 H2
e + C2H4 => e + C2H2 + H + H		! f47 * Bolsig+ C2H4 -> C2H2 H H
e + C2H4(v1) => e + C2H2 + H + H		! f47 * Bolsig+ C2H4(v1) -> C2H2 H H
e + C2H4(v2) => e + C2H2 + H + H		! f47 * Bolsig+ C2H4(v2) -> C2H2 H H
e + C2H4 => e + CH3 + CH		! f48 * Bolsig+ C2H4 -> CH3 CH
e + C2H4(v1) => e + CH3 + CH		! f48 * Bolsig+ C2H4(v1) -> CH3 CH
e + C2H4(v2) => e + CH3 + CH		! f48 * Bolsig+ C2H4(v2) -> CH3 CH
e + C2H4 => e + CH2 + CH2		! f49 * Bolsig+ C2H4 -> CH2 CH2
e + C2H4(v1) => e + CH2 + CH2		! f49 * Bolsig+ C2H4(v1) -> CH2 CH2
e + C2H4(v2) => e + CH2 + CH2		! f49 * Bolsig+ C2H4(v2) -> CH2 CH2
e + C2H3 => e + C2H2 + H		! f50 * Bolsig+ C2H3 -> C2H2 H
e + C2H3 => e + CH2 + CH		! f51 * Bolsig+ C2H3 -> CH2 CH
e + C2H2 => e + CH + CH		! f52 * Bolsig+ C2H2 -> CH CH
e + C2H2(v5) => e + CH + CH		! f52 * Bolsig+ C2H2(v5) -> CH CH
e + C2H2(v2) => e + CH + CH		! f52 * Bolsig+ C2H2(v2) -> CH CH
e + C2H2(v13) => e + CH + CH		! f52 * Bolsig+ C2H2(v13) -> CH CH
e + C2H6 => e + e + C2H6^+		! f53 * Bolsig+ C2H6 -> C2H6^+
e + C2H6(v24) => e + e + C2H6^+		! f53 * Bolsig+ C2H6(v24) -> C2H6^+
e + C2H6(v13) => e + e + C2H6^+		! f53 * Bolsig+ C2H6(v13) -> C2H6^+
e + C2H6 => e + e + H + C2H5^+		! f54 * Bolsig+ C2H6 -> H C2H5^+
e + C2H6(v24) => e + e + H + C2H5^+		! f54 * Bolsig+ C2H6(v24) -> H C2H5^+
e + C2H6(v13) => e + e + H + C2H5^+		! f54 * Bolsig+ C2H6(v13) -> H C2H5^+
e + C2H6 => e + e + H2 + C2H4^+		! f55 * Bolsig+ C2H6 -> H2 C2H4^+
e + C2H6(v24) => e + e + H2 + C2H4^+		! f55 * Bolsig+ C2H6(v24) -> H2 C2H4^+
e + C2H6(v13) => e + e + H2 + C2H4^+		! f55 * Bolsig+ C2H6(v13) -> H2 C2H4^+
e + C2H6 => e + e + H2 + H + C2H3^+		! f56 * Bolsig+ C2H6 -> H2 H C2H3^+
e + C2H6(v24) => e + e + H2 + H + C2H3^+		! f56 * Bolsig+ C2H6(v24) -> H2 H C2H3^+
e + C2H6(v13) => e + e + H2 + H + C2H3^+		! f56 * Bolsig+ C2H6(v13) -> H2 H C2H3^+
e + C2H6 => e + e + H2 + H2 + C2H2^+		! f57 * Bolsig+ C2H6 -> H2 H2 C2H2^+
e + C2H6(v24) => e + e + H2 + H2 + C2H2^+		! f57 * Bolsig+ C2H6(v24) -> H2 H2 C2H2^+
e + C2H6(v13) => e + e + H2 + H2 + C2H2^+		! f57 * Bolsig+ C2H6(v13) -> H2 H2 C2H2^+
e + C2H6 => e + e + CH3 + CH3^+		! f58 * Bolsig+ C2H6 -> CH3 CH3^+
e + C2H6(v24) => e + e + CH3 + CH3^+		! f58 * Bolsig+ C2H6(v24) -> CH3 CH3^+
e + C2H6(v13) => e + e + CH3 + CH3^+		! f58 * Bolsig+ C2H6(v13) -> CH3 CH3^+
e + C2H6 => e + e + CH4 + CH2^+		! f59 * Bolsig+ C2H6 -> CH4 CH2^+
e + C2H6(v24) => e + e + CH4 + CH2^+		! f59 * Bolsig+ C2H6(v24) -> CH4 CH2^+
e + C2H6(v13) => e + e + CH4 + CH2^+		! f59 * Bolsig+ C2H6(v13) -> CH4 CH2^+
e + C2H5 => e + e + C2H5^+		! f60 * Bolsig+ C2H5 -> C2H5^+
e + C2H5 => e + e + H + C2H4^+		! f61 * Bolsig+ C2H5 -> H C2H4^+
e + C2H5 => e + e + H2 + C2H3^+		! f62 * Bolsig+ C2H5 -> H2 C2H3^+
e + C2H5 => e + e + H2 + H + C2H2^+		! f63 * Bolsig+ C2H5 -> H2 H C2H2^+
e + C2H5 => e + e + CH2 + CH3^+		! f64 * Bolsig+ C2H5 -> CH2 CH3^+
e + C2H5 => e + e + CH3 + CH2^+		! f65 * Bolsig+ C2H5 -> CH3 CH2^+
e + C2H5 => e + e + CH4 + CH^+		! f66 * Bolsig+ C2H5 -> CH4 CH^+
e + C2H4 => e + e + C2H4^+		! f67 * Bolsig+ C2H4 -> C2H4^+
e + C2H4(v1) => e + e + C2H4^+		! f67 * Bolsig+ C2H4(v1) -> C2H4^+
e + C2H4(v2) => e + e + C2H4^+		! f67 * Bolsig+ C2H4(v2) -> C2H4^+
e + C2H4 => e + e + H + C2H3^+		! f68 * Bolsig+ C2H4 -> H C2H3^+
e + C2H4(v1) => e + e + H + C2H3^+		! f68 * Bolsig+ C2H4(v1) -> H C2H3^+
e + C2H4(v2) => e + e + H + C2H3^+		! f68 * Bolsig+ C2H4(v2) -> H C2H3^+
e + C2H4 => e + e + CH + CH3^+		! f69 * Bolsig+ C2H4 -> CH CH3^+
e + C2H4(v1) => e + e + CH + CH3^+		! f69 * Bolsig+ C2H4(v1) -> CH CH3^+
e + C2H4(v2) => e + e + CH + CH3^+		! f69 * Bolsig+ C2H4(v2) -> CH CH3^+
e + C2H4 => e + e + CH2 + CH2^+		! f70 * Bolsig+ C2H4 -> CH2 CH2^+
e + C2H4(v1) => e + e + CH2 + CH2^+		! f70 * Bolsig+ C2H4(v1) -> CH2 CH2^+
e + C2H4(v2) => e + e + CH2 + CH2^+		! f70 * Bolsig+ C2H4(v2) -> CH2 CH2^+
e + C2H4 => e + e + CH3 + CH^+		! f71 * Bolsig+ C2H4 -> CH3 CH^+
e + C2H4(v1) => e + e + CH3 + CH^+		! f71 * Bolsig+ C2H4(v1) -> CH3 CH^+
e + C2H4(v2) => e + e + CH3 + CH^+		! f71 * Bolsig+ C2H4(v2) -> CH3 CH^+
e + C2H3 => e + e + C2H3^+		! f72 * Bolsig+ C2H3 -> C2H3^+
e + C2H3 => e + e + H + C2H2^+		! f73 * Bolsig+ C2H3 -> H C2H2^+
e + C2H3 => e + e + CH + CH2^+		! f74 * Bolsig+ C2H3 -> CH CH2^+
e + C2H3 => e + e + CH2 + CH^+		! f75 * Bolsig+ C2H3 -> CH2 CH^+
e + C2H3 => e + e + C2H2 + H^+		! f76 * Bolsig+ C2H3 -> C2H2 H^+
e + C2H2 => e + e + C2H2^+		! f77 * Bolsig+ C2H2 -> C2H2^+
e + C2H2(v5) => e + e + C2H2^+		! f77 * Bolsig+ C2H2(v5) -> C2H2^+
e + C2H2(v2) => e + e + C2H2^+		! f77 * Bolsig+ C2H2(v2) -> C2H2^+
e + C2H2(v13) => e + e + C2H2^+		! f77 * Bolsig+ C2H2(v13) -> C2H2^+
e + C2H2 => e + e + CH + CH^+		! f78 * Bolsig+ C2H2 -> CH CH^+
e + C2H2(v5) => e + e + CH + CH^+		! f78 * Bolsig+ C2H2(v5) -> CH CH^+
e + C2H2(v2) => e + e + CH + CH^+		! f78 * Bolsig+ C2H2(v2) -> CH CH^+
e + C2H2(v13) => e + e + CH + CH^+		! f78 * Bolsig+ C2H2(v13) -> CH CH^+
e + C3H8 => e + C3H7 + H		! f79 * Bolsig+ C3H8 -> C3H7 H
e + C3H8(v1) => e + C3H7 + H		! f79 * Bolsig+ C3H8(v1) -> C3H7 H
e + C3H8(v2) => e + C3H7 + H		! f79 * Bolsig+ C3H8(v2) -> C3H7 H
e + C3H8 => e + C3H6 + H2		! f80 * Bolsig+ C3H8 -> C3H6 H2
e + C3H8(v1) => e + C3H6 + H2		! f80 * Bolsig+ C3H8(v1) -> C3H6 H2
e + C3H8(v2) => e + C3H6 + H2		! f80 * Bolsig+ C3H8(v2) -> C3H6 H2
e + C3H7 => e + C3H6 + H		! f81 * Bolsig+ C3H7 -> C3H6 H
e + C3H8 => e + e + C3H8^+		! f82 * Bolsig+ C3H8 -> C3H8^+
e + C3H8(v1) => e + e + C3H8^+		! f82 * Bolsig+ C3H8(v1) -> C3H8^+
e + C3H8(v2) => e + e + C3H8^+		! f82 * Bolsig+ C3H8(v2) -> C3H8^+
e + C3H8 => e + e + H + C3H7^+		! f83 * Bolsig+ C3H8 -> H C3H7^+
e + C3H8(v1) => e + e + H + C3H7^+		! f83 * Bolsig+ C3H8(v1) -> H C3H7^+
e + C3H8(v2) => e + e + H + C3H7^+		! f83 * Bolsig+ C3H8(v2) -> H C3H7^+
e + C3H8 => e + e + H2 + C3H6^+		! f84 * Bolsig+ C3H8 -> H2 C3H6^+
e + C3H8(v1) => e + e + H2 + C3H6^+		! f84 * Bolsig+ C3H8(v1) -> H2 C3H6^+
e + C3H8(v2) => e + e + H2 + C3H6^+		! f84 * Bolsig+ C3H8(v2) -> H2 C3H6^+
e + C3H7 => e + e + C3H7^+		! f85 * Bolsig+ C3H7 -> C3H7^+
e + C3H7 => e + e + H + C3H6^+		! f86 * Bolsig+ C3H7 -> H C3H6^+
e + C3H6 => e + e + C3H6^+		! f87 * Bolsig+ C3H6 -> C3H6^+
e + C3H6(v) => e + e + C3H6^+		! f87 * Bolsig+ C3H6(v) -> C3H6^+
e + C3H6 => e + C2H2 + CH4		! f88 * Bolsig+ C3H6 -> C2H2 CH4
e + C3H6(v) => e + C2H2 + CH4		! f88 * Bolsig+ C3H6(v) -> C2H2 CH4
e + C3H6 => e + e + C2H2 + CH4^+		! f89 * Bolsig+ C3H6 -> C2H2 CH4^+
e + C3H6(v) => e + e + C2H2 + CH4^+		! f89 * Bolsig+ C3H6(v) -> C2H2 CH4^+

# Ion Recombination Reaction
e + e + CH^+ => e + CH		! f90 * 1.00d0
e + e + CH2^+ => e + CH2		! f91 * 1.00d0
e + e + CH3^+ => e + CH3		! f92 * 1.00d0
e + e + CH4^+ => e + CH4		! f93 * 1.00d0
e + e + C2H2^+ => e + C2H2		! f94 * 1.00d0
e + e + C2H3^+ => e + C2H3		! f95 * 1.00d0
e + e + C2H4^+ => e + C2H4		! f96 * 1.00d0
e + e + C2H5^+ => e + C2H5		! f97 * 1.00d0
e + e + C2H6^+ => e + C2H6		! f98 * 1.00d0
e + e + C3H6^+ => e + C3H6		! f99 * 1.00d0
e + e + C3H7^+ => e + C3H7		! f100 * 1.00d0
e + e + C3H8^+ => e + C3H8		! f101 * 1.00d0

# Gas Phase Reaction
e + CH4^+ => CH3 + H		! f102 * 1.18d-08 * (300./Tgas)**0.5
e + CH4^+ => CH2 + H + H		! f103 * 2.42d-08 * (300./Tgas)**0.5
e + CH4^+ => CH + H2 + H		! f104 * 1.41d-08 * (300./Tgas)**0.5
e + CH3^+ => CH2 + H		! f105 * 2.25d-08 * (300./Tgas)**0.5
e + CH3^+ => CH + H2		! f106 * 7.88d-09 * (300./Tgas)**0.5
e + CH3^+ => CH + H + H		! f107 * 9.00d-09 * (300./Tgas)**0.5
e + CH3^+ => C + H2 + H		! f108 * 1.69d-08 * (300./Tgas)**0.5
e + CH2^+ => CH + H		! f109 * 1.00d-08 * (300./Tgas)**0.5
e + CH2^+ => C + H2		! f110 * 4.82d-09 * (300./Tgas)**0.5
e + CH2^+ => C + H + H		! f111 * 2.53d-08 * (300./Tgas)**0.5
e + CH^+ => C + H		! f112 * 3.23d-08 * (300./Tgas)**0.42
e + C2H6^+ => C2H5 + H		! f113 * 2.19d-08 * (300./Tgas)**0.71
e + C2H6^+ => C2H4 + H + H		! f114 * 3.36d-08 * (300./Tgas)**0.71
e + C2H5^+ => C2H4 + H		! f115 * 7.70d-09 * (300./Tgas)**0.71
e + C2H5^+ => C2H3 + H + H		! f116 * 1.92d-08 * (300./Tgas)**0.71
e + C2H5^+ => C2H2 + H2 + H		! f117 * 1.60d-08 * (300./Tgas)**0.71
e + C2H5^+ => C2H2 + H + H + H		! f118 * 8.98d-09 * (300./Tgas)**0.71
e + C2H5^+ => CH3 + CH2		! f119 * 9.62d-09 * (300./Tgas)**0.71
e + C2H4^+ => C2H3 + H		! f120 * 8.29d-09 * (300./Tgas)**0.71
e + C2H4^+ => C2H2 + H + H		! f121 * 3.43d-08 * (300./Tgas)**0.71
e + C2H3^+ => C2H2 + H		! f122 * 1.34d-08 * (300./Tgas)**0.71
e + C2H2^+ => CH + CH		! f123 * 4.87d-09 * (300./Tgas)**0.71
e + H2^+ => H + H		! f124 * 3.17d21/(6.022d23 * Te**4.5)
e + H3^+ => H + H2		! f125 * 3.17d21/(6.022d23 * Te**4.5)
H2 + H2^+ => H + H3^+		! f126 * 2.11d-09
C2H6 + CH4^+ => CH4 + H2 + C2H4^+		! f127 * 1.91d-9
C2H6(v24) + CH4^+ => CH4 + H2 + C2H4^+		! f127 * 1.91d-9
C2H6(v13) + CH4^+ => CH4 + H2 + C2H4^+		! f127 * 1.91d-9
C2H4 + CH4^+ => CH3 + C2H5^+		! f128 * 4.23d-10