ELEMENTS
e C H
END

SPECIES
e C CH CH^+ CH2 CH2^+ CH3 CH3^+ CH4 CH4(v13) CH4(v24) CH4^+ C2H2 C2H2(v13) C2H2(v2) C2H2(v5) C2H2^+ C2H3 C2H3^+ C2H4 C2H4(v1) C2H4(v2) C2H4^+ C2H5 C2H5^+
C2H6 C2H6(v13) C2H6(v24) C2H6^+ C3H5 C3H6 C3H6(v) C3H6^+ C3H7 C3H7^+ C3H8 C3H8(v1) C3H8(v2) C3H8^+ C4H9 C4H9H C2H C5H12 H H2 H2^+ H3^+ H^+
END

BOLSIG
CH CH2 CH3 CH4 CH4(v13) CH4(v24) C2H2 C2H2(v13) C2H2(v2) C2H2(v5) C2H3 C2H4 C2H4(v1) C2H4(v2) C2H5 C2H6 C2H6(v13) C2H6(v24) C3H6 C3H6(v) C3H7 C3H8 C3H8(v1) C3H8(v2)
END

REACTIONS
# Gas Constant
$ double precision, parameter :: R = 8.314d-3

# Compensation Parameters
$ double precision, parameter :: f0 = 4.9857d-6
$ double precision, parameter :: f1 = 1.0653d+1
$ double precision, parameter :: f2 = 2.3762d-7
$ double precision, parameter :: f3 = 6.9574d+1
$ double precision, parameter :: f4 = 5.6506d-6
$ double precision, parameter :: f5 = 9.4634d-3
$ double precision, parameter :: f6 = 1.1352d-4
$ double precision, parameter :: f7 = 3.7294d-5
$ double precision, parameter :: f8 = 6.8107d+2
$ double precision, parameter :: f9 = 6.3201d-6
$ double precision, parameter :: f10 = 1.7062d-5
$ double precision, parameter :: f11 = 7.8829d-6
$ double precision, parameter :: f12 = 4.3719d-5
$ double precision, parameter :: f13 = 6.3781d-2
$ double precision, parameter :: f14 = 6.1859d0
$ double precision, parameter :: f15 = 2.5211d-1
$ double precision, parameter :: f16 = 3.7304d0
$ double precision, parameter :: f17 = 4.3221d-3
$ double precision, parameter :: f18 = 7.0242d0
$ double precision, parameter :: f19 = 3.2838d-7
$ double precision, parameter :: f20 = 1.2576d-4
$ double precision, parameter :: f21 = 4.7605d-4
$ double precision, parameter :: f22 = 9.9915d-2
$ double precision, parameter :: f23 = 1.0046d+2
$ double precision, parameter :: f24 = 9.1865d+2
$ double precision, parameter :: f25 = 5.2920d0
$ double precision, parameter :: f26 = 1.4710d-4
$ double precision, parameter :: f27 = 1.0235d-2
$ double precision, parameter :: f28 = 2.0544d-6
$ double precision, parameter :: f29 = 2.9866d0
$ double precision, parameter :: f30 = 1.3624d-5
$ double precision, parameter :: f31 = 1.9295d-2
$ double precision, parameter :: f32 = 3.8199d0
$ double precision, parameter :: f33 = 1.1217d-6
$ double precision, parameter :: f34 = 1.1632d-8
$ double precision, parameter :: f35 = 8.5870d-8
$ double precision, parameter :: f36 = 1.4666d-8
$ double precision, parameter :: f37 = 1.4246d-3
$ double precision, parameter :: f38 = 5.0737d-5
$ double precision, parameter :: f39 = 1.8350d-5
$ double precision, parameter :: f40 = 2.9218d-6
$ double precision, parameter :: f41 = 6.6368d0
$ double precision, parameter :: f42 = 4.2612d-1
$ double precision, parameter :: f43 = 1.0769d+2
$ double precision, parameter :: f44 = 7.1184d0
$ double precision, parameter :: f45 = 3.2982d+1
$ double precision, parameter :: f46 = 5.0230d-1
$ double precision, parameter :: f47 = 4.4128d-6
$ double precision, parameter :: f48 = 2.1702d-7
$ double precision, parameter :: f49 = 2.3323d-7
$ double precision, parameter :: f50 = 4.6524d-3
$ double precision, parameter :: f51 = 4.0099d-4
$ double precision, parameter :: f52 = 5.5958d-1
$ double precision, parameter :: f53 = 1.1297d+1
$ double precision, parameter :: f54 = 1.3352d-6
$ double precision, parameter :: f55 = 1.5600d-1
$ double precision, parameter :: f56 = 2.6663d-4
$ double precision, parameter :: f57 = 4.9327d-1
$ double precision, parameter :: f58 = 3.6827d-8
$ double precision, parameter :: f59 = 8.7191d+2
$ double precision, parameter :: f60 = 1.7079d-2
$ double precision, parameter :: f61 = 6.1102d-5
$ double precision, parameter :: f62 = 2.6360d-1
$ double precision, parameter :: f63 = 4.1874d-2
$ double precision, parameter :: f64 = 3.1332d-6
$ double precision, parameter :: f65 = 9.3395d-6
$ double precision, parameter :: f66 = 8.2463d-3
$ double precision, parameter :: f67 = 1.7300d-6
$ double precision, parameter :: f68 = 4.3164d-8
$ double precision, parameter :: f69 = 4.3429d0
$ double precision, parameter :: f70 = 9.1814d0
$ double precision, parameter :: f71 = 1.3809d-7
$ double precision, parameter :: f72 = 3.2749d-3
$ double precision, parameter :: f73 = 5.5757d-6
$ double precision, parameter :: f74 = 9.0342d-5
$ double precision, parameter :: f75 = 8.0840d-7
$ double precision, parameter :: f76 = 7.3857d-7
$ double precision, parameter :: f77 = 5.3774d+2
$ double precision, parameter :: f78 = 4.1404d-5
$ double precision, parameter :: f79 = 6.4582d-5
$ double precision, parameter :: f80 = 8.2402d-4
$ double precision, parameter :: f81 = 5.0696d+2
$ double precision, parameter :: f82 = 1.1846d-4
$ double precision, parameter :: f83 = 7.1270d-5
$ double precision, parameter :: f84 = 1.8159d0
$ double precision, parameter :: f85 = 3.2527d0
$ double precision, parameter :: f86 = 7.9220d-7
$ double precision, parameter :: f87 = 2.4591d0
$ double precision, parameter :: f88 = 3.7406d-4
$ double precision, parameter :: f89 = 6.5813d+1
$ double precision, parameter :: f90 = 5.8132d-3
$ double precision, parameter :: f91 = 1.1520d-6
$ double precision, parameter :: f92 = 1.5409d-1
$ double precision, parameter :: f93 = 1.5933d-3
$ double precision, parameter :: f94 = 8.2323d-8
$ double precision, parameter :: f95 = 1.1951d-4
$ double precision, parameter :: f96 = 3.8645d-7
$ double precision, parameter :: f97 = 7.2761d0
$ double precision, parameter :: f98 = 8.4884d-7
$ double precision, parameter :: f99 = 3.1035d-2
$ double precision, parameter :: f100 = 1.7513d-5
$ double precision, parameter :: f101 = 2.2229d-1
$ double precision, parameter :: f102 = 6.3086d-2
$ double precision, parameter :: f103 = 2.5550d+1
$ double precision, parameter :: f104 = 1.2146d-6
$ double precision, parameter :: f105 = 3.3827d-5
$ double precision, parameter :: f106 = 2.5428d-8
$ double precision, parameter :: f107 = 2.4112d-7
$ double precision, parameter :: f108 = 4.0715d+2
$ double precision, parameter :: f109 = 1.9580d+1
$ double precision, parameter :: f110 = 1.9181d-2
$ double precision, parameter :: f111 = 4.3846d+1
$ double precision, parameter :: f112 = 5.6332d-7
$ double precision, parameter :: f113 = 1.7853d-8
$ double precision, parameter :: f114 = 1.9314d+1
$ double precision, parameter :: f115 = 5.5976d-8
$ double precision, parameter :: f116 = 1.2036d-5
$ double precision, parameter :: f117 = 3.7572d-4
$ double precision, parameter :: f118 = 1.2026d+2
$ double precision, parameter :: f119 = 6.4135d-5
$ double precision, parameter :: f120 = 2.2871d0
$ double precision, parameter :: f121 = 1.3509d-2
$ double precision, parameter :: f122 = 7.2513d+2
$ double precision, parameter :: f123 = 1.8948d+1
$ double precision, parameter :: f124 = 4.9792d+2
$ double precision, parameter :: f125 = 3.0037d+2
$ double precision, parameter :: f126 = 2.2020d-8
$ double precision, parameter :: f127 = 4.0248d-4
$ double precision, parameter :: f128 = 1.4400d-4
$ double precision, parameter :: f129 = 1.6180d+1
$ double precision, parameter :: f130 = 6.5079d+1
$ double precision, parameter :: f131 = 8.1538d-6
$ double precision, parameter :: f132 = 2.2575d+2
$ double precision, parameter :: f133 = 5.8377d0
$ double precision, parameter :: f134 = 1.2718d0
$ double precision, parameter :: f135 = 1.8525d-3
$ double precision, parameter :: f136 = 4.4737d+1
$ double precision, parameter :: f137 = 5.8407d-3
$ double precision, parameter :: f138 = 1.9949d-5
$ double precision, parameter :: f139 = 1.8699d-6
$ double precision, parameter :: f140 = 1.1124d-8
$ double precision, parameter :: f141 = 1.1045d+1
$ double precision, parameter :: f142 = 4.4574d-7
$ double precision, parameter :: f143 = 2.0714d-5
$ double precision, parameter :: f144 = 1.3897d+1
$ double precision, parameter :: f145 = 4.7979d0
$ double precision, parameter :: f146 = 1.6426d-2
$ double precision, parameter :: f147 = 5.2409d-7
$ double precision, parameter :: f148 = 1.0370d-7
$ double precision, parameter :: f149 = 2.4322d0
$ double precision, parameter :: f150 = 4.7243d-4
$ double precision, parameter :: f151 = 2.7060d-2
$ double precision, parameter :: f152 = 4.7055d-4
$ double precision, parameter :: f153 = 4.3392d-1
$ double precision, parameter :: f154 = 4.4211d0
$ double precision, parameter :: f155 = 7.6545d-5
$ double precision, parameter :: f156 = 2.7535d-8
$ double precision, parameter :: f157 = 7.9529d-2
$ double precision, parameter :: f158 = 3.1039d-5
$ double precision, parameter :: f159 = 3.0453d-8
$ double precision, parameter :: f160 = 2.3097d+2
$ double precision, parameter :: f161 = 5.8938d-8
$ double precision, parameter :: f162 = 1.3636d-8
$ double precision, parameter :: f163 = 3.2043d-6
$ double precision, parameter :: f164 = 2.3789d-2
$ double precision, parameter :: f165 = 1.4110d-1
$ double precision, parameter :: f166 = 6.1217d+1
$ double precision, parameter :: f167 = 6.7880d-6
$ double precision, parameter :: f168 = 3.9431d-8
$ double precision, parameter :: f169 = 4.6520d-8
$ double precision, parameter :: f170 = 7.4445d-8
$ double precision, parameter :: f171 = 1.7854d-3
$ double precision, parameter :: f172 = 7.3879d-4
$ double precision, parameter :: f173 = 2.7958d-6
$ double precision, parameter :: f174 = 8.6003d-5
$ double precision, parameter :: f175 = 4.2793d+2
$ double precision, parameter :: f176 = 4.1555d-7
$ double precision, parameter :: f177 = 6.3782d-4
$ double precision, parameter :: f178 = 1.1105d-5
$ double precision, parameter :: f179 = 9.7036d-7
$ double precision, parameter :: f180 = 3.7071d+2
$ double precision, parameter :: f181 = 1.9249d-5
$ double precision, parameter :: f182 = 7.6311d+2
$ double precision, parameter :: f183 = 2.2097d0
$ double precision, parameter :: f184 = 1.5939d+2
$ double precision, parameter :: f185 = 1.5862d0
$ double precision, parameter :: f186 = 8.8759d-6
$ double precision, parameter :: f187 = 4.6392d-6
$ double precision, parameter :: f188 = 6.5426d-6
$ double precision, parameter :: f189 = 5.1132d+1
$ double precision, parameter :: f190 = 3.7098d-1
$ double precision, parameter :: f191 = 2.0991d-6
$ double precision, parameter :: f192 = 9.4539d-3
$ double precision, parameter :: f193 = 1.4152d-1
$ double precision, parameter :: f194 = 2.6649d+1
$ double precision, parameter :: f195 = 5.4525d-8
$ double precision, parameter :: f196 = 4.4866d-4
$ double precision, parameter :: f197 = 1.9263d+2
$ double precision, parameter :: f198 = 1.4023d-2
$ double precision, parameter :: f199 = 6.4695d-7
$ double precision, parameter :: f200 = 9.3502d+2
$ double precision, parameter :: f201 = 1.0948d-2
$ double precision, parameter :: f202 = 1.0164d-8
$ double precision, parameter :: f203 = 2.5076d+2
$ double precision, parameter :: f204 = 6.8627d+2
$ double precision, parameter :: f205 = 2.5409d-7
$ double precision, parameter :: f206 = 1.2376d-8
$ double precision, parameter :: f207 = 5.6212d+2
$ double precision, parameter :: f208 = 1.1807d-8
$ double precision, parameter :: f209 = 2.5605d+1
$ double precision, parameter :: f210 = 8.1514d-5
$ double precision, parameter :: f211 = 3.1652d-8
$ double precision, parameter :: f212 = 1.0432d+2
$ double precision, parameter :: f213 = 2.8114d-3
$ double precision, parameter :: f214 = 3.8702d0
$ double precision, parameter :: f215 = 2.8190d-8
$ double precision, parameter :: f216 = 1.1498d-3
$ double precision, parameter :: f217 = 1.1415d+2
$ double precision, parameter :: f218 = 6.6245d-5
$ double precision, parameter :: f219 = 8.7097d-5
$ double precision, parameter :: f220 = 4.1061d-8
$ double precision, parameter :: f221 = 2.8198d-6
$ double precision, parameter :: f222 = 1.0148d-7
$ double precision, parameter :: f223 = 4.4885d-2
$ double precision, parameter :: f224 = 4.4837d-7
$ double precision, parameter :: f225 = 4.3476d-5
$ double precision, parameter :: f226 = 8.9940d-2
$ double precision, parameter :: f227 = 5.3240d-1
$ double precision, parameter :: f228 = 4.8172d-1
$ double precision, parameter :: f229 = 7.3182d-4
$ double precision, parameter :: f230 = 8.4993d-4
$ double precision, parameter :: f231 = 5.0442d-8
$ double precision, parameter :: f232 = 6.7472d-1
$ double precision, parameter :: f233 = 2.1853d0
$ double precision, parameter :: f234 = 1.6630d-5
$ double precision, parameter :: f235 = 3.6894d-6
$ double precision, parameter :: f236 = 5.5131d-2
$ double precision, parameter :: f237 = 1.3942d-2
$ double precision, parameter :: f238 = 2.1745d-5
$ double precision, parameter :: f239 = 4.7644d-8
$ double precision, parameter :: f240 = 9.0084d-6
$ double precision, parameter :: f241 = 5.5348d-3
$ double precision, parameter :: f242 = 1.9903d+2
$ double precision, parameter :: f243 = 4.3194d-1
$ double precision, parameter :: f244 = 7.6965d-7
$ double precision, parameter :: f245 = 1.2998d+1
$ double precision, parameter :: f246 = 3.6173d-4
$ double precision, parameter :: f247 = 2.4861d-1
$ double precision, parameter :: f248 = 4.0225d-4
$ double precision, parameter :: f249 = 4.3482d+1
$ double precision, parameter :: f250 = 1.2743d-5
$ double precision, parameter :: f251 = 1.7692d0
$ double precision, parameter :: f252 = 5.1498d-8
$ double precision, parameter :: f253 = 1.9470d-7
$ double precision, parameter :: f254 = 4.9829d-1
$ double precision, parameter :: f255 = 2.0978d-4
$ double precision, parameter :: f256 = 1.4970d-1
$ double precision, parameter :: f257 = 2.8261d-4
$ double precision, parameter :: f258 = 1.4985d-2
$ double precision, parameter :: f259 = 1.5902d0
$ double precision, parameter :: f260 = 1.1011d+2
$ double precision, parameter :: f261 = 1.8497d+1
$ double precision, parameter :: f262 = 6.9133d-4
$ double precision, parameter :: f263 = 6.3018d+2
$ double precision, parameter :: f264 = 6.8886d-2
$ double precision, parameter :: f265 = 8.6895d-5
$ double precision, parameter :: f266 = 4.6898d+1
$ double precision, parameter :: f267 = 4.9385d+2
$ double precision, parameter :: f268 = 1.6343d-6
$ double precision, parameter :: f269 = 6.2648d-5
$ double precision, parameter :: f270 = 5.0670d0
$ double precision, parameter :: f271 = 3.0958d-8
$ double precision, parameter :: f272 = 1.4060d-1
$ double precision, parameter :: f273 = 9.1511d0
$ double precision, parameter :: f274 = 5.9935d+2
$ double precision, parameter :: f275 = 1.6134d-1
$ double precision, parameter :: f276 = 1.8600d-1
$ double precision, parameter :: f277 = 1.1702d-3
$ double precision, parameter :: f278 = 1.3590d-1
$ double precision, parameter :: f279 = 1.6675d0
$ double precision, parameter :: f280 = 2.7163d+1
$ double precision, parameter :: f281 = 1.0677d-2
$ double precision, parameter :: f282 = 1.7988d+1
$ double precision, parameter :: f283 = 1.6236d-6
$ double precision, parameter :: f284 = 6.2081d-1
$ double precision, parameter :: f285 = 1.1508d+1
$ double precision, parameter :: f286 = 5.4079d-5
$ double precision, parameter :: f287 = 2.6207d-7
$ double precision, parameter :: f288 = 1.0622d-7
$ double precision, parameter :: f289 = 2.0384d0
$ double precision, parameter :: f290 = 1.9853d0
$ double precision, parameter :: f291 = 2.2496d-4
$ double precision, parameter :: f292 = 1.0298d-6
$ double precision, parameter :: f293 = 2.6850d0
$ double precision, parameter :: f294 = 1.7088d-3
$ double precision, parameter :: f295 = 6.0675d-8
$ double precision, parameter :: f296 = 2.1458d-2
$ double precision, parameter :: f297 = 1.8465d-6
$ double precision, parameter :: f298 = 5.0184d-3
$ double precision, parameter :: f299 = 1.2402d0
$ double precision, parameter :: f300 = 6.1332d-1
$ double precision, parameter :: f301 = 1.3614d-5
$ double precision, parameter :: f302 = 3.1536d-3
$ double precision, parameter :: f303 = 3.4767d0
$ double precision, parameter :: f304 = 1.5963d-2
$ double precision, parameter :: f305 = 8.4380d-4
$ double precision, parameter :: f306 = 1.6702d-7
$ double precision, parameter :: f307 = 5.1140d-8
$ double precision, parameter :: f308 = 1.7978d+1
$ double precision, parameter :: f309 = 2.8754d-4
$ double precision, parameter :: f310 = 1.2976d-2
$ double precision, parameter :: f311 = 1.6195d-3
$ double precision, parameter :: f312 = 3.4743d+2
$ double precision, parameter :: f313 = 3.4833d-4
$ double precision, parameter :: f314 = 2.3180d-4
$ double precision, parameter :: f315 = 1.5468d-8

# Electron Collision Reaction
e + CH4 => e + CH4(v24)		! f0 * Bolsig+ CH4 -> CH4(v24)
e + CH4 => e + CH4(v13)		! f1 * Bolsig+ CH4 -> CH4(v13)
e + C2H6 => e + C2H6(v24)		! f2 * Bolsig+ C2H6 -> C2H6(v24)
e + C2H6 => e + C2H6(v13)		! f3 * Bolsig+ C2H6 -> C2H6(v13)
e + C2H4 => e + C2H4(v1)		! f4 * Bolsig+ C2H4 -> C2H4(v1)
e + C2H4 => e + C2H4(v2)		! f5 * Bolsig+ C2H4 -> C2H4(v2)
e + C2H2 => e + C2H2(v5)		! f6 * Bolsig+ C2H2 -> C2H2(v5)
e + C2H2 => e + C2H2(v2)		! f7 * Bolsig+ C2H2 -> C2H2(v2)
e + C2H2 => e + C2H2(v13)		! f8 * Bolsig+ C2H2 -> C2H2(v13)
e + C3H8 => e + C3H8(v1)		! f9 * Bolsig+ C3H8 -> C3H8(v1)
e + C3H8 => e + C3H8(v2)		! f10 * Bolsig+ C3H8 -> C3H8(v2)
e + C3H6 => e + C3H6(v)		! f11 * Bolsig+ C3H6 -> C3H6(v)
e + CH4 => e + CH3 + H		! f12 * Bolsig+ CH4 -> CH3 H
e + CH4(v24) => e + CH3 + H		! f12 * Bolsig+ CH4(v24) -> CH3 H
e + CH4(v13) => e + CH3 + H		! f12 * Bolsig+ CH4(v13) -> CH3 H
e + CH4 => e + CH2 + H2		! f13 * Bolsig+ CH4 -> CH2 H2
e + CH4(v24) => e + CH2 + H2		! f13 * Bolsig+ CH4(v24) -> CH2 H2
e + CH4(v13) => e + CH2 + H2		! f13 * Bolsig+ CH4(v13) -> CH2 H2
e + CH4 => e + CH + H2 + H		! f14 * Bolsig+ CH4 -> CH H2 H
e + CH4(v24) => e + CH + H2 + H		! f14 * Bolsig+ CH4(v24) -> CH H2 H
e + CH4(v13) => e + CH + H2 + H		! f14 * Bolsig+ CH4(v13) -> CH H2 H
e + CH4 => e + C + H2 + H2		! f15 * Bolsig+ CH4 -> C H2 H2
e + CH4(v24) => e + C + H2 + H2		! f15 * Bolsig+ CH4(v24) -> C H2 H2
e + CH4(v13) => e + C + H2 + H2		! f15 * Bolsig+ CH4(v13) -> C H2 H2
e + CH3 => e + CH2 + H		! f16 * Bolsig+ CH3 -> CH2 H
e + CH3 => e + CH + H2		! f17 * Bolsig+ CH3 -> CH H2
e + CH3 => e + C + H2 + H		! f18 * Bolsig+ CH3 -> C H2 H
e + CH2 => e + CH + H		! f19 * Bolsig+ CH2 -> CH H
e + CH2 => e + C + H2		! f20 * Bolsig+ CH2 -> C H2
e + CH2 => e + C + H + H		! f21 * Bolsig+ CH2 -> C H H
e + CH => e + C + H		! f22 * Bolsig+ CH -> C H
e + CH4 => e + e + CH4^+		! f23 * Bolsig+ CH4 -> CH4^+
e + CH4(v24) => e + e + CH4^+		! f23 * Bolsig+ CH4(v24) -> CH4^+
e + CH4(v13) => e + e + CH4^+		! f23 * Bolsig+ CH4(v13) -> CH4^+
e + CH4 => e + e + H + CH3^+		! f24 * Bolsig+ CH4 -> H CH3^+
e + CH4(v24) => e + e + H + CH3^+		! f24 * Bolsig+ CH4(v24) -> H CH3^+
e + CH4(v13) => e + e + H + CH3^+		! f24 * Bolsig+ CH4(v13) -> H CH3^+
e + CH4 => e + e + H2 + CH2^+		! f25 * Bolsig+ CH4 -> H2 CH2^+
e + CH4(v24) => e + e + H2 + CH2^+		! f25 * Bolsig+ CH4(v24) -> H2 CH2^+
e + CH4(v13) => e + e + H2 + CH2^+		! f25 * Bolsig+ CH4(v13) -> H2 CH2^+
e + CH4 => e + e + H2 + H + CH^+		! f26 * Bolsig+ CH4 -> H2 H CH^+
e + CH4(v24) => e + e + H2 + H + CH^+		! f26 * Bolsig+ CH4(v24) -> H2 H CH^+
e + CH4(v13) => e + e + H2 + H + CH^+		! f26 * Bolsig+ CH4(v13) -> H2 H CH^+
e + CH3 => e + e + CH3^+		! f27 * Bolsig+ CH3 -> CH3^+
e + CH3 => e + e + H + CH2^+		! f28 * Bolsig+ CH3 -> H CH2^+
e + CH3 => e + e + H2 + CH^+		! f29 * Bolsig+ CH3 -> H2 CH^+
e + CH2 => e + e + CH2^+		! f30 * Bolsig+ CH2 -> CH2^+
e + CH2 => e + e + H + CH^+		! f31 * Bolsig+ CH2 -> H CH^+
e + CH => e + e + CH^+		! f32 * Bolsig+ CH -> CH^+
e + C2H6 => e + C2H5 + H		! f33 * Bolsig+ C2H6 -> C2H5 H
e + C2H6(v24) => e + C2H5 + H		! f33 * Bolsig+ C2H6(v24) -> C2H5 H
e + C2H6(v13) => e + C2H5 + H		! f33 * Bolsig+ C2H6(v13) -> C2H5 H
e + C2H6 => e + C2H4 + H2		! f34 * Bolsig+ C2H6 -> C2H4 H2
e + C2H6(v24) => e + C2H4 + H2		! f34 * Bolsig+ C2H6(v24) -> C2H4 H2
e + C2H6(v13) => e + C2H4 + H2		! f34 * Bolsig+ C2H6(v13) -> C2H4 H2
e + C2H6 => e + C2H3 + H2 + H		! f35 * Bolsig+ C2H6 -> C2H3 H2 H
e + C2H6(v24) => e + C2H3 + H2 + H		! f35 * Bolsig+ C2H6(v24) -> C2H3 H2 H
e + C2H6(v13) => e + C2H3 + H2 + H		! f35 * Bolsig+ C2H6(v13) -> C2H3 H2 H
e + C2H6 => e + C2H2 + H2 + H2		! f36 * Bolsig+ C2H6 -> C2H2 H2 H2
e + C2H6(v24) => e + C2H2 + H2 + H2		! f36 * Bolsig+ C2H6(v24) -> C2H2 H2 H2
e + C2H6(v13) => e + C2H2 + H2 + H2		! f36 * Bolsig+ C2H6(v13) -> C2H2 H2 H2
e + C2H6 => e + CH4 + CH2		! f37 * Bolsig+ C2H6 -> CH4 CH2
e + C2H6(v24) => e + CH4 + CH2		! f37 * Bolsig+ C2H6(v24) -> CH4 CH2
e + C2H6(v13) => e + CH4 + CH2		! f37 * Bolsig+ C2H6(v13) -> CH4 CH2
e + C2H6 => e + CH3 + CH3		! f38 * Bolsig+ C2H6 -> CH3 CH3
e + C2H6(v24) => e + CH3 + CH3		! f38 * Bolsig+ C2H6(v24) -> CH3 CH3
e + C2H6(v13) => e + CH3 + CH3		! f38 * Bolsig+ C2H6(v13) -> CH3 CH3
e + C2H5 => e + C2H4 + H		! f39 * Bolsig+ C2H5 -> C2H4 H
e + C2H5 => e + C2H3 + H2		! f40 * Bolsig+ C2H5 -> C2H3 H2
e + C2H5 => e + C2H3 + H + H		! f41 * Bolsig+ C2H5 -> C2H3 H H
e + C2H5 => e + C2H2 + H2 + H		! f42 * Bolsig+ C2H5 -> C2H2 H2 H
e + C2H5 => e + CH4 + CH		! f43 * Bolsig+ C2H5 -> CH4 CH
e + C2H5 => e + CH3 + CH2		! f44 * Bolsig+ C2H5 -> CH3 CH2
e + C2H4 => e + C2H3 + H		! f45 * Bolsig+ C2H4 -> C2H3 H
e + C2H4(v1) => e + C2H3 + H		! f45 * Bolsig+ C2H4(v1) -> C2H3 H
e + C2H4(v2) => e + C2H3 + H		! f45 * Bolsig+ C2H4(v2) -> C2H3 H
e + C2H4 => e + C2H2 + H2		! f46 * Bolsig+ C2H4 -> C2H2 H2
e + C2H4(v1) => e + C2H2 + H2		! f46 * Bolsig+ C2H4(v1) -> C2H2 H2
e + C2H4(v2) => e + C2H2 + H2		! f46 * Bolsig+ C2H4(v2) -> C2H2 H2
e + C2H4 => e + C2H2 + H + H		! f47 * Bolsig+ C2H4 -> C2H2 H H
e + C2H4(v1) => e + C2H2 + H + H		! f47 * Bolsig+ C2H4(v1) -> C2H2 H H
e + C2H4(v2) => e + C2H2 + H + H		! f47 * Bolsig+ C2H4(v2) -> C2H2 H H
e + C2H4 => e + CH3 + CH		! f48 * Bolsig+ C2H4 -> CH3 CH
e + C2H4(v1) => e + CH3 + CH		! f48 * Bolsig+ C2H4(v1) -> CH3 CH
e + C2H4(v2) => e + CH3 + CH		! f48 * Bolsig+ C2H4(v2) -> CH3 CH
e + C2H4 => e + CH2 + CH2		! f49 * Bolsig+ C2H4 -> CH2 CH2
e + C2H4(v1) => e + CH2 + CH2		! f49 * Bolsig+ C2H4(v1) -> CH2 CH2
e + C2H4(v2) => e + CH2 + CH2		! f49 * Bolsig+ C2H4(v2) -> CH2 CH2
e + C2H3 => e + C2H2 + H		! f50 * Bolsig+ C2H3 -> C2H2 H
e + C2H3 => e + CH2 + CH		! f51 * Bolsig+ C2H3 -> CH2 CH
e + C2H2 => e + CH + CH		! f52 * Bolsig+ C2H2 -> CH CH
e + C2H2(v5) => e + CH + CH		! f52 * Bolsig+ C2H2(v5) -> CH CH
e + C2H2(v2) => e + CH + CH		! f52 * Bolsig+ C2H2(v2) -> CH CH
e + C2H2(v13) => e + CH + CH		! f52 * Bolsig+ C2H2(v13) -> CH CH
e + C2H6 => e + e + C2H6^+		! f53 * Bolsig+ C2H6 -> C2H6^+
e + C2H6(v24) => e + e + C2H6^+		! f53 * Bolsig+ C2H6(v24) -> C2H6^+
e + C2H6(v13) => e + e + C2H6^+		! f53 * Bolsig+ C2H6(v13) -> C2H6^+
e + C2H6 => e + e + H + C2H5^+		! f54 * Bolsig+ C2H6 -> H C2H5^+
e + C2H6(v24) => e + e + H + C2H5^+		! f54 * Bolsig+ C2H6(v24) -> H C2H5^+
e + C2H6(v13) => e + e + H + C2H5^+		! f54 * Bolsig+ C2H6(v13) -> H C2H5^+
e + C2H6 => e + e + H2 + C2H4^+		! f55 * Bolsig+ C2H6 -> H2 C2H4^+
e + C2H6(v24) => e + e + H2 + C2H4^+		! f55 * Bolsig+ C2H6(v24) -> H2 C2H4^+
e + C2H6(v13) => e + e + H2 + C2H4^+		! f55 * Bolsig+ C2H6(v13) -> H2 C2H4^+
e + C2H6 => e + e + H2 + H + C2H3^+		! f56 * Bolsig+ C2H6 -> H2 H C2H3^+
e + C2H6(v24) => e + e + H2 + H + C2H3^+		! f56 * Bolsig+ C2H6(v24) -> H2 H C2H3^+
e + C2H6(v13) => e + e + H2 + H + C2H3^+		! f56 * Bolsig+ C2H6(v13) -> H2 H C2H3^+
e + C2H6 => e + e + H2 + H2 + C2H2^+		! f57 * Bolsig+ C2H6 -> H2 H2 C2H2^+
e + C2H6(v24) => e + e + H2 + H2 + C2H2^+		! f57 * Bolsig+ C2H6(v24) -> H2 H2 C2H2^+
e + C2H6(v13) => e + e + H2 + H2 + C2H2^+		! f57 * Bolsig+ C2H6(v13) -> H2 H2 C2H2^+
e + C2H6 => e + e + CH3 + CH3^+		! f58 * Bolsig+ C2H6 -> CH3 CH3^+
e + C2H6(v24) => e + e + CH3 + CH3^+		! f58 * Bolsig+ C2H6(v24) -> CH3 CH3^+
e + C2H6(v13) => e + e + CH3 + CH3^+		! f58 * Bolsig+ C2H6(v13) -> CH3 CH3^+
e + C2H6 => e + e + CH4 + CH2^+		! f59 * Bolsig+ C2H6 -> CH4 CH2^+
e + C2H6(v24) => e + e + CH4 + CH2^+		! f59 * Bolsig+ C2H6(v24) -> CH4 CH2^+
e + C2H6(v13) => e + e + CH4 + CH2^+		! f59 * Bolsig+ C2H6(v13) -> CH4 CH2^+
e + C2H5 => e + e + C2H5^+		! f60 * Bolsig+ C2H5 -> C2H5^+
e + C2H5 => e + e + H + C2H4^+		! f61 * Bolsig+ C2H5 -> H C2H4^+
e + C2H5 => e + e + H2 + C2H3^+		! f62 * Bolsig+ C2H5 -> H2 C2H3^+
e + C2H5 => e + e + H2 + H + C2H2^+		! f63 * Bolsig+ C2H5 -> H2 H C2H2^+
e + C2H5 => e + e + CH2 + CH3^+		! f64 * Bolsig+ C2H5 -> CH2 CH3^+
e + C2H5 => e + e + CH3 + CH2^+		! f65 * Bolsig+ C2H5 -> CH3 CH2^+
e + C2H5 => e + e + CH4 + CH^+		! f66 * Bolsig+ C2H5 -> CH4 CH^+
e + C2H4 => e + e + C2H4^+		! f67 * Bolsig+ C2H4 -> C2H4^+
e + C2H4(v1) => e + e + C2H4^+		! f67 * Bolsig+ C2H4(v1) -> C2H4^+
e + C2H4(v2) => e + e + C2H4^+		! f67 * Bolsig+ C2H4(v2) -> C2H4^+
e + C2H4 => e + e + H + C2H3^+		! f68 * Bolsig+ C2H4 -> H C2H3^+
e + C2H4(v1) => e + e + H + C2H3^+		! f68 * Bolsig+ C2H4(v1) -> H C2H3^+
e + C2H4(v2) => e + e + H + C2H3^+		! f68 * Bolsig+ C2H4(v2) -> H C2H3^+
e + C2H4 => e + e + CH + CH3^+		! f69 * Bolsig+ C2H4 -> CH CH3^+
e + C2H4(v1) => e + e + CH + CH3^+		! f69 * Bolsig+ C2H4(v1) -> CH CH3^+
e + C2H4(v2) => e + e + CH + CH3^+		! f69 * Bolsig+ C2H4(v2) -> CH CH3^+
e + C2H4 => e + e + CH2 + CH2^+		! f70 * Bolsig+ C2H4 -> CH2 CH2^+
e + C2H4(v1) => e + e + CH2 + CH2^+		! f70 * Bolsig+ C2H4(v1) -> CH2 CH2^+
e + C2H4(v2) => e + e + CH2 + CH2^+		! f70 * Bolsig+ C2H4(v2) -> CH2 CH2^+
e + C2H4 => e + e + CH3 + CH^+		! f71 * Bolsig+ C2H4 -> CH3 CH^+
e + C2H4(v1) => e + e + CH3 + CH^+		! f71 * Bolsig+ C2H4(v1) -> CH3 CH^+
e + C2H4(v2) => e + e + CH3 + CH^+		! f71 * Bolsig+ C2H4(v2) -> CH3 CH^+
e + C2H3 => e + e + C2H3^+		! f72 * Bolsig+ C2H3 -> C2H3^+
e + C2H3 => e + e + H + C2H2^+		! f73 * Bolsig+ C2H3 -> H C2H2^+
e + C2H3 => e + e + CH + CH2^+		! f74 * Bolsig+ C2H3 -> CH CH2^+
e + C2H3 => e + e + CH2 + CH^+		! f75 * Bolsig+ C2H3 -> CH2 CH^+
e + C2H3 => e + e + C2H2 + H^+		! f76 * Bolsig+ C2H3 -> C2H2 H^+
e + C2H2 => e + e + C2H2^+		! f77 * Bolsig+ C2H2 -> C2H2^+
e + C2H2(v5) => e + e + C2H2^+		! f77 * Bolsig+ C2H2(v5) -> C2H2^+
e + C2H2(v2) => e + e + C2H2^+		! f77 * Bolsig+ C2H2(v2) -> C2H2^+
e + C2H2(v13) => e + e + C2H2^+		! f77 * Bolsig+ C2H2(v13) -> C2H2^+
e + C2H2 => e + e + CH + CH^+		! f78 * Bolsig+ C2H2 -> CH CH^+
e + C2H2(v5) => e + e + CH + CH^+		! f78 * Bolsig+ C2H2(v5) -> CH CH^+
e + C2H2(v2) => e + e + CH + CH^+		! f78 * Bolsig+ C2H2(v2) -> CH CH^+
e + C2H2(v13) => e + e + CH + CH^+		! f78 * Bolsig+ C2H2(v13) -> CH CH^+
e + C3H8 => e + C3H7 + H		! f79 * Bolsig+ C3H8 -> C3H7 H
e + C3H8(v1) => e + C3H7 + H		! f79 * Bolsig+ C3H8(v1) -> C3H7 H
e + C3H8(v2) => e + C3H7 + H		! f79 * Bolsig+ C3H8(v2) -> C3H7 H
e + C3H8 => e + C3H6 + H2		! f80 * Bolsig+ C3H8 -> C3H6 H2
e + C3H8(v1) => e + C3H6 + H2		! f80 * Bolsig+ C3H8(v1) -> C3H6 H2
e + C3H8(v2) => e + C3H6 + H2		! f80 * Bolsig+ C3H8(v2) -> C3H6 H2
e + C3H7 => e + C3H6 + H		! f81 * Bolsig+ C3H7 -> C3H6 H
e + C3H8 => e + e + C3H8^+		! f82 * Bolsig+ C3H8 -> C3H8^+
e + C3H8(v1) => e + e + C3H8^+		! f82 * Bolsig+ C3H8(v1) -> C3H8^+
e + C3H8(v2) => e + e + C3H8^+		! f82 * Bolsig+ C3H8(v2) -> C3H8^+
e + C3H8 => e + e + H + C3H7^+		! f83 * Bolsig+ C3H8 -> H C3H7^+
e + C3H8(v1) => e + e + H + C3H7^+		! f83 * Bolsig+ C3H8(v1) -> H C3H7^+
e + C3H8(v2) => e + e + H + C3H7^+		! f83 * Bolsig+ C3H8(v2) -> H C3H7^+
e + C3H8 => e + e + H2 + C3H6^+		! f84 * Bolsig+ C3H8 -> H2 C3H6^+
e + C3H8(v1) => e + e + H2 + C3H6^+		! f84 * Bolsig+ C3H8(v1) -> H2 C3H6^+
e + C3H8(v2) => e + e + H2 + C3H6^+		! f84 * Bolsig+ C3H8(v2) -> H2 C3H6^+
e + C3H7 => e + e + C3H7^+		! f85 * Bolsig+ C3H7 -> C3H7^+
e + C3H7 => e + e + H + C3H6^+		! f86 * Bolsig+ C3H7 -> H C3H6^+
e + C3H6 => e + e + C3H6^+		! f87 * Bolsig+ C3H6 -> C3H6^+
e + C3H6(v) => e + e + C3H6^+		! f87 * Bolsig+ C3H6(v) -> C3H6^+
e + C3H6 => e + C2H2 + CH4		! f88 * Bolsig+ C3H6 -> C2H2 CH4
e + C3H6(v) => e + C2H2 + CH4		! f88 * Bolsig+ C3H6(v) -> C2H2 CH4
e + C3H6 => e + e + C2H2 + CH4^+		! f89 * Bolsig+ C3H6 -> C2H2 CH4^+
e + C3H6(v) => e + e + C2H2 + CH4^+		! f89 * Bolsig+ C3H6(v) -> C2H2 CH4^+

# Ion Recombination Reaction
e + e + CH^+ => e + CH		! f90 * 1.00d0
e + e + CH2^+ => e + CH2		! f91 * 1.00d0
e + e + CH3^+ => e + CH3		! f92 * 1.00d0
e + e + CH4^+ => e + CH4		! f93 * 1.00d0
e + e + C2H2^+ => e + C2H2		! f94 * 1.00d0
e + e + C2H3^+ => e + C2H3		! f95 * 1.00d0
e + e + C2H4^+ => e + C2H4		! f96 * 1.00d0
e + e + C2H5^+ => e + C2H5		! f97 * 1.00d0
e + e + C2H6^+ => e + C2H6		! f98 * 1.00d0
e + e + C3H6^+ => e + C3H6		! f99 * 1.00d0
e + e + C3H7^+ => e + C3H7		! f100 * 1.00d0
e + e + C3H8^+ => e + C3H8		! f101 * 1.00d0

# Gas Phase Reaction
e + CH4^+ => CH3 + H		! f102 * 1.18d-08 * (300./Tgas)**0.5
e + CH4^+ => CH2 + H + H		! f103 * 2.42d-08 * (300./Tgas)**0.5
e + CH4^+ => CH + H2 + H		! f104 * 1.41d-08 * (300./Tgas)**0.5
e + CH3^+ => CH2 + H		! f105 * 2.25d-08 * (300./Tgas)**0.5
e + CH3^+ => CH + H2		! f106 * 7.88d-09 * (300./Tgas)**0.5
e + CH3^+ => CH + H + H		! f107 * 9.00d-09 * (300./Tgas)**0.5
e + CH3^+ => C + H2 + H		! f108 * 1.69d-08 * (300./Tgas)**0.5
e + CH2^+ => CH + H		! f109 * 1.00d-08 * (300./Tgas)**0.5
e + CH2^+ => C + H2		! f110 * 4.82d-09 * (300./Tgas)**0.5
e + CH2^+ => C + H + H		! f111 * 2.53d-08 * (300./Tgas)**0.5
e + CH^+ => C + H		! f112 * 3.23d-08 * (300./Tgas)**0.42
e + C2H6^+ => C2H5 + H		! f113 * 2.19d-08 * (300./Tgas)**0.71
e + C2H6^+ => C2H4 + H + H		! f114 * 3.36d-08 * (300./Tgas)**0.71
e + C2H5^+ => C2H4 + H		! f115 * 7.70d-09 * (300./Tgas)**0.71
e + C2H5^+ => C2H3 + H + H		! f116 * 1.92d-08 * (300./Tgas)**0.71
e + C2H5^+ => C2H2 + H2 + H		! f117 * 1.60d-08 * (300./Tgas)**0.71
e + C2H5^+ => C2H2 + H + H + H		! f118 * 8.98d-09 * (300./Tgas)**0.71
e + C2H5^+ => CH3 + CH2		! f119 * 9.62d-09 * (300./Tgas)**0.71
e + C2H4^+ => C2H3 + H		! f120 * 8.29d-09 * (300./Tgas)**0.71
e + C2H4^+ => C2H2 + H + H		! f121 * 3.43d-08 * (300./Tgas)**0.71
e + C2H3^+ => C2H2 + H		! f122 * 1.34d-08 * (300./Tgas)**0.71
e + C2H2^+ => CH + CH		! f123 * 4.87d-09 * (300./Tgas)**0.71
e + H2^+ => H + H		! f124 * 3.17d21/(6.022d23 * Te**4.5)
e + H3^+ => H + H2		! f125 * 3.17d21/(6.022d23 * Te**4.5)
H2 + H2^+ => H + H3^+		! f126 * 2.11d-09
C2H6 + CH4^+ => CH4 + H2 + C2H4^+		! f127 * 1.91d-9
C2H6(v24) + CH4^+ => CH4 + H2 + C2H4^+		! f127 * 1.91d-9
C2H6(v13) + CH4^+ => CH4 + H2 + C2H4^+		! f127 * 1.91d-9
C2H4 + CH4^+ => CH3 + C2H5^+		! f128 * 4.23d-10