ELEMENTS
e C H
END

SPECIES
e C CH CH^+ CH2 CH2^+ CH3 CH3^+ CH4 CH4(v13) CH4(v24) CH4^+ C2H2 C2H2(v13) C2H2(v2) C2H2(v5) C2H2^+ C2H3 C2H3^+ C2H4 C2H4(v1) C2H4(v2) C2H4^+ C2H5 C2H5^+
C2H6 C2H6(v13) C2H6(v24) C2H6^+ C3H5 C3H6 C3H6(v) C3H6^+ C3H7 C3H7^+ C3H8 C3H8(v1) C3H8(v2) C3H8^+ C4H9 C4H9H C2H C5H12 H H2 H2^+ H3^+ H^+
END

BOLSIG
CH CH2 CH3 CH4 CH4(v13) CH4(v24) C2H2 C2H2(v13) C2H2(v2) C2H2(v5) C2H3 C2H4 C2H4(v1) C2H4(v2) C2H5 C2H6 C2H6(v13) C2H6(v24) C3H6 C3H6(v) C3H7 C3H8 C3H8(v1) C3H8(v2)
END

REACTIONS
# Gas Constant
$ double precision, parameter :: R = 8.314d-3

# Compensation Parameters
$ double precision, parameter :: f0 = 2.0423d-6
$ double precision, parameter :: f1 = 3.6603d-3
$ double precision, parameter :: f2 = 4.1499d-1
$ double precision, parameter :: f3 = 5.6037d-8
$ double precision, parameter :: f4 = 4.1735d-1
$ double precision, parameter :: f5 = 9.6675d+2
$ double precision, parameter :: f6 = 5.3728d-2
$ double precision, parameter :: f7 = 6.6203d+1
$ double precision, parameter :: f8 = 1.9079d-2
$ double precision, parameter :: f9 = 3.7955d-4
$ double precision, parameter :: f10 = 2.7951d0
$ double precision, parameter :: f11 = 9.5455d-5
$ double precision, parameter :: f12 = 2.1439d+1
$ double precision, parameter :: f13 = 4.5435d+2
$ double precision, parameter :: f14 = 6.7095d+2
$ double precision, parameter :: f15 = 1.5276d-2
$ double precision, parameter :: f16 = 7.7591d-2
$ double precision, parameter :: f17 = 2.0496d-4
$ double precision, parameter :: f18 = 1.3189d-3
$ double precision, parameter :: f19 = 1.5288d+1
$ double precision, parameter :: f20 = 4.4350d0
$ double precision, parameter :: f21 = 9.6264d-6
$ double precision, parameter :: f22 = 3.6476d-6
$ double precision, parameter :: f23 = 1.1287d-7
$ double precision, parameter :: f24 = 1.7994d0
$ double precision, parameter :: f25 = 1.2920d-1
$ double precision, parameter :: f26 = 4.1822d+1
$ double precision, parameter :: f27 = 1.1013d0
$ double precision, parameter :: f28 = 8.0500d-5
$ double precision, parameter :: f29 = 1.2283d-6
$ double precision, parameter :: f30 = 5.3602d+1
$ double precision, parameter :: f31 = 7.3148d-2
$ double precision, parameter :: f32 = 4.9956d-7
$ double precision, parameter :: f33 = 2.2987d+1
$ double precision, parameter :: f34 = 4.5348d-2
$ double precision, parameter :: f35 = 5.1556d-7
$ double precision, parameter :: f36 = 4.3347d-8
$ double precision, parameter :: f37 = 1.4942d-4
$ double precision, parameter :: f38 = 2.8264d+1
$ double precision, parameter :: f39 = 1.5460d-8
$ double precision, parameter :: f40 = 3.3483d-4
$ double precision, parameter :: f41 = 5.5286d0
$ double precision, parameter :: f42 = 9.7908d-3
$ double precision, parameter :: f43 = 4.4687d+1
$ double precision, parameter :: f44 = 2.3667d0
$ double precision, parameter :: f45 = 1.0331d-8
$ double precision, parameter :: f46 = 1.1174d0
$ double precision, parameter :: f47 = 5.2960d-7
$ double precision, parameter :: f48 = 2.7461d-2
$ double precision, parameter :: f49 = 5.0239d-6
$ double precision, parameter :: f50 = 9.7976d-4
$ double precision, parameter :: f51 = 2.0555d-3
$ double precision, parameter :: f52 = 3.2001d-8
$ double precision, parameter :: f53 = 2.8734d-2
$ double precision, parameter :: f54 = 3.0301d-8
$ double precision, parameter :: f55 = 6.2340d-7
$ double precision, parameter :: f56 = 1.2176d-2
$ double precision, parameter :: f57 = 3.0062d-8
$ double precision, parameter :: f58 = 5.3636d0
$ double precision, parameter :: f59 = 1.6870d+2
$ double precision, parameter :: f60 = 1.7399d0
$ double precision, parameter :: f61 = 7.8910d-3
$ double precision, parameter :: f62 = 1.5323d+2
$ double precision, parameter :: f63 = 1.0355d+1
$ double precision, parameter :: f64 = 6.8748d-6
$ double precision, parameter :: f65 = 1.3282d-1
$ double precision, parameter :: f66 = 5.0161d-3
$ double precision, parameter :: f67 = 3.9227d0
$ double precision, parameter :: f68 = 5.2905d-6
$ double precision, parameter :: f69 = 3.5189d-2
$ double precision, parameter :: f70 = 2.3170d-3
$ double precision, parameter :: f71 = 2.7492d-6
$ double precision, parameter :: f72 = 1.6183d-5
$ double precision, parameter :: f73 = 1.9759d-4
$ double precision, parameter :: f74 = 1.0834d+1
$ double precision, parameter :: f75 = 7.8715d-1
$ double precision, parameter :: f76 = 3.5098d-2
$ double precision, parameter :: f77 = 4.1872d0
$ double precision, parameter :: f78 = 5.8172d-3
$ double precision, parameter :: f79 = 6.2813d-4
$ double precision, parameter :: f80 = 7.0452d-3
$ double precision, parameter :: f81 = 4.1930d-7
$ double precision, parameter :: f82 = 1.3323d+2
$ double precision, parameter :: f83 = 8.5799d0
$ double precision, parameter :: f84 = 1.0374d-7
$ double precision, parameter :: f85 = 4.4706d-6
$ double precision, parameter :: f86 = 6.0557d-4
$ double precision, parameter :: f87 = 2.0281d-2
$ double precision, parameter :: f88 = 1.7934d-6
$ double precision, parameter :: f89 = 1.0213d+2
$ double precision, parameter :: f90 = 8.5846d-5
$ double precision, parameter :: f91 = 5.4947d+1
$ double precision, parameter :: f92 = 8.4858d-1
$ double precision, parameter :: f93 = 1.5920d-7
$ double precision, parameter :: f94 = 3.0077d0
$ double precision, parameter :: f95 = 9.8809d-1
$ double precision, parameter :: f96 = 2.1853d-7
$ double precision, parameter :: f97 = 6.0373d-8
$ double precision, parameter :: f98 = 1.4006d-7
$ double precision, parameter :: f99 = 3.2912d+2
$ double precision, parameter :: f100 = 4.6733d-3
$ double precision, parameter :: f101 = 4.1383d-7
$ double precision, parameter :: f102 = 6.7200d-5
$ double precision, parameter :: f103 = 2.9472d0
$ double precision, parameter :: f104 = 6.0820d-6
$ double precision, parameter :: f105 = 3.7976d-7
$ double precision, parameter :: f106 = 1.8699d-5
$ double precision, parameter :: f107 = 5.3559d-8
$ double precision, parameter :: f108 = 1.8427d-4
$ double precision, parameter :: f109 = 2.0241d-5
$ double precision, parameter :: f110 = 2.5243d-7
$ double precision, parameter :: f111 = 3.7846d-8
$ double precision, parameter :: f112 = 1.3471d+1
$ double precision, parameter :: f113 = 2.6005d-1
$ double precision, parameter :: f114 = 1.6798d-5
$ double precision, parameter :: f115 = 1.8101d-4
$ double precision, parameter :: f116 = 3.6387d-6
$ double precision, parameter :: f117 = 3.8316d+1
$ double precision, parameter :: f118 = 4.3404d+1
$ double precision, parameter :: f119 = 3.8151d-4
$ double precision, parameter :: f120 = 2.6254d-4
$ double precision, parameter :: f121 = 3.1153d+2
$ double precision, parameter :: f122 = 6.3373d-3
$ double precision, parameter :: f123 = 6.1121d-1
$ double precision, parameter :: f124 = 1.3678d+2
$ double precision, parameter :: f125 = 2.1481d+2
$ double precision, parameter :: f126 = 4.9065d-1
$ double precision, parameter :: f127 = 1.0026d-4
$ double precision, parameter :: f128 = 7.4245d0
$ double precision, parameter :: f129 = 6.8366d-2
$ double precision, parameter :: f130 = 2.6386d-8
$ double precision, parameter :: f131 = 8.4372d-7
$ double precision, parameter :: f132 = 6.0281d-6
$ double precision, parameter :: f133 = 1.0802d0
$ double precision, parameter :: f134 = 1.5028d-5
$ double precision, parameter :: f135 = 1.4521d-8
$ double precision, parameter :: f136 = 1.0824d-5
$ double precision, parameter :: f137 = 3.8088d0
$ double precision, parameter :: f138 = 6.3903d-3
$ double precision, parameter :: f139 = 4.7656d+1
$ double precision, parameter :: f140 = 1.0190d-2
$ double precision, parameter :: f141 = 3.4340d-5
$ double precision, parameter :: f142 = 8.4328d0
$ double precision, parameter :: f143 = 3.3527d+2
$ double precision, parameter :: f144 = 2.7524d-4
$ double precision, parameter :: f145 = 5.5744d-7
$ double precision, parameter :: f146 = 3.2510d+1
$ double precision, parameter :: f147 = 4.6937d0
$ double precision, parameter :: f148 = 3.7700d-7
$ double precision, parameter :: f149 = 7.2778d+2
$ double precision, parameter :: f150 = 1.5907d-4
$ double precision, parameter :: f151 = 2.0244d-3
$ double precision, parameter :: f152 = 1.1924d-1
$ double precision, parameter :: f153 = 2.1102d+1
$ double precision, parameter :: f154 = 1.1557d-4
$ double precision, parameter :: f155 = 3.6338d-8
$ double precision, parameter :: f156 = 7.1033d-7
$ double precision, parameter :: f157 = 1.6609d+2
$ double precision, parameter :: f158 = 3.4361d-1
$ double precision, parameter :: f159 = 1.2081d-6
$ double precision, parameter :: f160 = 1.7446d+1
$ double precision, parameter :: f161 = 2.0462d-7
$ double precision, parameter :: f162 = 6.9521d+1
$ double precision, parameter :: f163 = 3.5062d0
$ double precision, parameter :: f164 = 8.8893d+2
$ double precision, parameter :: f165 = 1.5351d-4
$ double precision, parameter :: f166 = 1.7582d+1
$ double precision, parameter :: f167 = 1.4423d-2
$ double precision, parameter :: f168 = 1.0974d-5
$ double precision, parameter :: f169 = 1.2446d-7
$ double precision, parameter :: f170 = 4.4793d0
$ double precision, parameter :: f171 = 4.8014d-2
$ double precision, parameter :: f172 = 2.7599d-6
$ double precision, parameter :: f173 = 1.0216d-2
$ double precision, parameter :: f174 = 6.7445d-8
$ double precision, parameter :: f175 = 3.9392d-5
$ double precision, parameter :: f176 = 1.2688d+2
$ double precision, parameter :: f177 = 1.0989d-2
$ double precision, parameter :: f178 = 1.4577d-3
$ double precision, parameter :: f179 = 7.8905d-5
$ double precision, parameter :: f180 = 1.6726d-5
$ double precision, parameter :: f181 = 1.2259d-6
$ double precision, parameter :: f182 = 3.1527d-2
$ double precision, parameter :: f183 = 2.9852d-8
$ double precision, parameter :: f184 = 6.0465d-5
$ double precision, parameter :: f185 = 1.6252d-7
$ double precision, parameter :: f186 = 6.7130d+1
$ double precision, parameter :: f187 = 1.7509d-3
$ double precision, parameter :: f188 = 2.1266d+2
$ double precision, parameter :: f189 = 1.4815d-4
$ double precision, parameter :: f190 = 2.0245d-8
$ double precision, parameter :: f191 = 2.5978d-4
$ double precision, parameter :: f192 = 6.9667d-8
$ double precision, parameter :: f193 = 6.2681d-5
$ double precision, parameter :: f194 = 3.3642d-8
$ double precision, parameter :: f195 = 2.0800d0
$ double precision, parameter :: f196 = 1.3365d0
$ double precision, parameter :: f197 = 4.6567d-6
$ double precision, parameter :: f198 = 2.7278d-6
$ double precision, parameter :: f199 = 8.7329d0
$ double precision, parameter :: f200 = 1.7717d-3
$ double precision, parameter :: f201 = 1.2204d-3
$ double precision, parameter :: f202 = 7.7642d-7
$ double precision, parameter :: f203 = 7.6413d-2
$ double precision, parameter :: f204 = 9.1604d-7
$ double precision, parameter :: f205 = 4.0890d-8
$ double precision, parameter :: f206 = 1.2484d-2
$ double precision, parameter :: f207 = 8.5828d-8
$ double precision, parameter :: f208 = 7.3453d0
$ double precision, parameter :: f209 = 2.0570d-7
$ double precision, parameter :: f210 = 2.3945d-7
$ double precision, parameter :: f211 = 3.7674d+2
$ double precision, parameter :: f212 = 8.2764d+2
$ double precision, parameter :: f213 = 7.1554d-2
$ double precision, parameter :: f214 = 1.4303d-6
$ double precision, parameter :: f215 = 1.2084d-6
$ double precision, parameter :: f216 = 7.8123d-8
$ double precision, parameter :: f217 = 1.2148d-8
$ double precision, parameter :: f218 = 1.6268d-2
$ double precision, parameter :: f219 = 1.6709d-6
$ double precision, parameter :: f220 = 6.7562d-6
$ double precision, parameter :: f221 = 6.4378d-2
$ double precision, parameter :: f222 = 2.0451d-2
$ double precision, parameter :: f223 = 9.6849d-2
$ double precision, parameter :: f224 = 9.1540d-4
$ double precision, parameter :: f225 = 3.2922d-1
$ double precision, parameter :: f226 = 8.2682d-5
$ double precision, parameter :: f227 = 3.6099d-8
$ double precision, parameter :: f228 = 6.7077d+2
$ double precision, parameter :: f229 = 2.3026d-3
$ double precision, parameter :: f230 = 1.3795d-1
$ double precision, parameter :: f231 = 4.5477d-2
$ double precision, parameter :: f232 = 4.3970d+2
$ double precision, parameter :: f233 = 2.1301d-8
$ double precision, parameter :: f234 = 1.5590d0
$ double precision, parameter :: f235 = 8.9140d-8
$ double precision, parameter :: f236 = 2.5193d-1
$ double precision, parameter :: f237 = 2.7055d-1
$ double precision, parameter :: f238 = 2.0973d-4
$ double precision, parameter :: f239 = 5.2027d-1
$ double precision, parameter :: f240 = 2.4599d+2
$ double precision, parameter :: f241 = 3.6961d-5
$ double precision, parameter :: f242 = 6.2560d-1
$ double precision, parameter :: f243 = 6.9556d+1
$ double precision, parameter :: f244 = 3.4665d+1
$ double precision, parameter :: f245 = 3.7629d0
$ double precision, parameter :: f246 = 1.9546d-5
$ double precision, parameter :: f247 = 5.7764d-6
$ double precision, parameter :: f248 = 1.2228d-2
$ double precision, parameter :: f249 = 1.8235d-6
$ double precision, parameter :: f250 = 3.2092d-1
$ double precision, parameter :: f251 = 6.3482d-7
$ double precision, parameter :: f252 = 1.8494d+1
$ double precision, parameter :: f253 = 5.3785d-6
$ double precision, parameter :: f254 = 2.7811d-2
$ double precision, parameter :: f255 = 6.3370d+1
$ double precision, parameter :: f256 = 2.1779d-4
$ double precision, parameter :: f257 = 1.1392d+1
$ double precision, parameter :: f258 = 4.1921d-1
$ double precision, parameter :: f259 = 9.3721d-4
$ double precision, parameter :: f260 = 1.7106d-8
$ double precision, parameter :: f261 = 1.1624d-3
$ double precision, parameter :: f262 = 1.4252d-4
$ double precision, parameter :: f263 = 2.1391d-8
$ double precision, parameter :: f264 = 1.4213d-3
$ double precision, parameter :: f265 = 2.8945d0
$ double precision, parameter :: f266 = 2.0724d-8
$ double precision, parameter :: f267 = 4.8401d+2
$ double precision, parameter :: f268 = 7.0955d-1
$ double precision, parameter :: f269 = 4.6247d-8
$ double precision, parameter :: f270 = 1.9114d-4
$ double precision, parameter :: f271 = 7.3798d-8
$ double precision, parameter :: f272 = 2.8259d0
$ double precision, parameter :: f273 = 1.2957d-7
$ double precision, parameter :: f274 = 1.5395d-5
$ double precision, parameter :: f275 = 3.9626d+2
$ double precision, parameter :: f276 = 5.0028d-6
$ double precision, parameter :: f277 = 6.3212d-7
$ double precision, parameter :: f278 = 2.5259d-5
$ double precision, parameter :: f279 = 1.7082d+1
$ double precision, parameter :: f280 = 2.3520d-8
$ double precision, parameter :: f281 = 1.8387d-8
$ double precision, parameter :: f282 = 4.3365d-2
$ double precision, parameter :: f283 = 9.7642d-4
$ double precision, parameter :: f284 = 2.5302d-3
$ double precision, parameter :: f285 = 3.3437d-2
$ double precision, parameter :: f286 = 2.2500d+1
$ double precision, parameter :: f287 = 1.4143d-3
$ double precision, parameter :: f288 = 2.5094d-6
$ double precision, parameter :: f289 = 5.5293d-5
$ double precision, parameter :: f290 = 1.1044d-7
$ double precision, parameter :: f291 = 1.3348d-6
$ double precision, parameter :: f292 = 4.9451d-4
$ double precision, parameter :: f293 = 7.3780d+1
$ double precision, parameter :: f294 = 1.3199d+1
$ double precision, parameter :: f295 = 2.3010d-6
$ double precision, parameter :: f296 = 1.3443d+1
$ double precision, parameter :: f297 = 1.3728d-7
$ double precision, parameter :: f298 = 6.6241d-6
$ double precision, parameter :: f299 = 1.8270d-5
$ double precision, parameter :: f300 = 1.1909d-5
$ double precision, parameter :: f301 = 1.5762d-7
$ double precision, parameter :: f302 = 1.4795d+2
$ double precision, parameter :: f303 = 9.4044d-5
$ double precision, parameter :: f304 = 3.6820d-6
$ double precision, parameter :: f305 = 1.3728d0
$ double precision, parameter :: f306 = 1.7429d-2
$ double precision, parameter :: f307 = 3.0704d-3
$ double precision, parameter :: f308 = 2.8424d-1
$ double precision, parameter :: f309 = 1.9943d-1
$ double precision, parameter :: f310 = 3.3847d0
$ double precision, parameter :: f311 = 1.0551d-4
$ double precision, parameter :: f312 = 3.3107d-4
$ double precision, parameter :: f313 = 2.7475d-2
$ double precision, parameter :: f314 = 8.6667d-3
$ double precision, parameter :: f315 = 2.4734d-4

# Electron Collision Reaction
e + CH4 => e + CH4(v24)		! f0 * Bolsig+ CH4 -> CH4(v24)
e + CH4 => e + CH4(v13)		! f1 * Bolsig+ CH4 -> CH4(v13)
e + C2H6 => e + C2H6(v24)		! f2 * Bolsig+ C2H6 -> C2H6(v24)
e + C2H6 => e + C2H6(v13)		! f3 * Bolsig+ C2H6 -> C2H6(v13)
e + C2H4 => e + C2H4(v1)		! f4 * Bolsig+ C2H4 -> C2H4(v1)
e + C2H4 => e + C2H4(v2)		! f5 * Bolsig+ C2H4 -> C2H4(v2)
e + C2H2 => e + C2H2(v5)		! f6 * Bolsig+ C2H2 -> C2H2(v5)
e + C2H2 => e + C2H2(v2)		! f7 * Bolsig+ C2H2 -> C2H2(v2)
e + C2H2 => e + C2H2(v13)		! f8 * Bolsig+ C2H2 -> C2H2(v13)
e + C3H8 => e + C3H8(v1)		! f9 * Bolsig+ C3H8 -> C3H8(v1)
e + C3H8 => e + C3H8(v2)		! f10 * Bolsig+ C3H8 -> C3H8(v2)
e + C3H6 => e + C3H6(v)		! f11 * Bolsig+ C3H6 -> C3H6(v)
e + CH4 => e + CH3 + H		! f12 * Bolsig+ CH4 -> CH3 H
e + CH4(v24) => e + CH3 + H		! f12 * Bolsig+ CH4(v24) -> CH3 H
e + CH4(v13) => e + CH3 + H		! f12 * Bolsig+ CH4(v13) -> CH3 H
e + CH4 => e + CH2 + H2		! f13 * Bolsig+ CH4 -> CH2 H2
e + CH4(v24) => e + CH2 + H2		! f13 * Bolsig+ CH4(v24) -> CH2 H2
e + CH4(v13) => e + CH2 + H2		! f13 * Bolsig+ CH4(v13) -> CH2 H2
e + CH4 => e + CH + H2 + H		! f14 * Bolsig+ CH4 -> CH H2 H
e + CH4(v24) => e + CH + H2 + H		! f14 * Bolsig+ CH4(v24) -> CH H2 H
e + CH4(v13) => e + CH + H2 + H		! f14 * Bolsig+ CH4(v13) -> CH H2 H
e + CH4 => e + C + H2 + H2		! f15 * Bolsig+ CH4 -> C H2 H2
e + CH4(v24) => e + C + H2 + H2		! f15 * Bolsig+ CH4(v24) -> C H2 H2
e + CH4(v13) => e + C + H2 + H2		! f15 * Bolsig+ CH4(v13) -> C H2 H2
e + CH3 => e + CH2 + H		! f16 * Bolsig+ CH3 -> CH2 H
e + CH3 => e + CH + H2		! f17 * Bolsig+ CH3 -> CH H2
e + CH3 => e + C + H2 + H		! f18 * Bolsig+ CH3 -> C H2 H
e + CH2 => e + CH + H		! f19 * Bolsig+ CH2 -> CH H
e + CH2 => e + C + H2		! f20 * Bolsig+ CH2 -> C H2
e + CH2 => e + C + H + H		! f21 * Bolsig+ CH2 -> C H H
e + CH => e + C + H		! f22 * Bolsig+ CH -> C H
e + CH4 => e + e + CH4^+		! f23 * Bolsig+ CH4 -> CH4^+
e + CH4(v24) => e + e + CH4^+		! f23 * Bolsig+ CH4(v24) -> CH4^+
e + CH4(v13) => e + e + CH4^+		! f23 * Bolsig+ CH4(v13) -> CH4^+
e + CH4 => e + e + H + CH3^+		! f24 * Bolsig+ CH4 -> H CH3^+
e + CH4(v24) => e + e + H + CH3^+		! f24 * Bolsig+ CH4(v24) -> H CH3^+
e + CH4(v13) => e + e + H + CH3^+		! f24 * Bolsig+ CH4(v13) -> H CH3^+
e + CH4 => e + e + H2 + CH2^+		! f25 * Bolsig+ CH4 -> H2 CH2^+
e + CH4(v24) => e + e + H2 + CH2^+		! f25 * Bolsig+ CH4(v24) -> H2 CH2^+
e + CH4(v13) => e + e + H2 + CH2^+		! f25 * Bolsig+ CH4(v13) -> H2 CH2^+
e + CH4 => e + e + H2 + H + CH^+		! f26 * Bolsig+ CH4 -> H2 H CH^+
e + CH4(v24) => e + e + H2 + H + CH^+		! f26 * Bolsig+ CH4(v24) -> H2 H CH^+
e + CH4(v13) => e + e + H2 + H + CH^+		! f26 * Bolsig+ CH4(v13) -> H2 H CH^+
e + CH3 => e + e + CH3^+		! f27 * Bolsig+ CH3 -> CH3^+
e + CH3 => e + e + H + CH2^+		! f28 * Bolsig+ CH3 -> H CH2^+
e + CH3 => e + e + H2 + CH^+		! f29 * Bolsig+ CH3 -> H2 CH^+
e + CH2 => e + e + CH2^+		! f30 * Bolsig+ CH2 -> CH2^+
e + CH2 => e + e + H + CH^+		! f31 * Bolsig+ CH2 -> H CH^+
e + CH => e + e + CH^+		! f32 * Bolsig+ CH -> CH^+
e + C2H6 => e + C2H5 + H		! f33 * Bolsig+ C2H6 -> C2H5 H
e + C2H6(v24) => e + C2H5 + H		! f33 * Bolsig+ C2H6(v24) -> C2H5 H
e + C2H6(v13) => e + C2H5 + H		! f33 * Bolsig+ C2H6(v13) -> C2H5 H
e + C2H6 => e + C2H4 + H2		! f34 * Bolsig+ C2H6 -> C2H4 H2
e + C2H6(v24) => e + C2H4 + H2		! f34 * Bolsig+ C2H6(v24) -> C2H4 H2
e + C2H6(v13) => e + C2H4 + H2		! f34 * Bolsig+ C2H6(v13) -> C2H4 H2
e + C2H6 => e + C2H3 + H2 + H		! f35 * Bolsig+ C2H6 -> C2H3 H2 H
e + C2H6(v24) => e + C2H3 + H2 + H		! f35 * Bolsig+ C2H6(v24) -> C2H3 H2 H
e + C2H6(v13) => e + C2H3 + H2 + H		! f35 * Bolsig+ C2H6(v13) -> C2H3 H2 H
e + C2H6 => e + C2H2 + H2 + H2		! f36 * Bolsig+ C2H6 -> C2H2 H2 H2
e + C2H6(v24) => e + C2H2 + H2 + H2		! f36 * Bolsig+ C2H6(v24) -> C2H2 H2 H2
e + C2H6(v13) => e + C2H2 + H2 + H2		! f36 * Bolsig+ C2H6(v13) -> C2H2 H2 H2
e + C2H6 => e + CH4 + CH2		! f37 * Bolsig+ C2H6 -> CH4 CH2
e + C2H6(v24) => e + CH4 + CH2		! f37 * Bolsig+ C2H6(v24) -> CH4 CH2
e + C2H6(v13) => e + CH4 + CH2		! f37 * Bolsig+ C2H6(v13) -> CH4 CH2
e + C2H6 => e + CH3 + CH3		! f38 * Bolsig+ C2H6 -> CH3 CH3
e + C2H6(v24) => e + CH3 + CH3		! f38 * Bolsig+ C2H6(v24) -> CH3 CH3
e + C2H6(v13) => e + CH3 + CH3		! f38 * Bolsig+ C2H6(v13) -> CH3 CH3
e + C2H5 => e + C2H4 + H		! f39 * Bolsig+ C2H5 -> C2H4 H
e + C2H5 => e + C2H3 + H2		! f40 * Bolsig+ C2H5 -> C2H3 H2
e + C2H5 => e + C2H3 + H + H		! f41 * Bolsig+ C2H5 -> C2H3 H H
e + C2H5 => e + C2H2 + H2 + H		! f42 * Bolsig+ C2H5 -> C2H2 H2 H
e + C2H5 => e + CH4 + CH		! f43 * Bolsig+ C2H5 -> CH4 CH
e + C2H5 => e + CH3 + CH2		! f44 * Bolsig+ C2H5 -> CH3 CH2
e + C2H4 => e + C2H3 + H		! f45 * Bolsig+ C2H4 -> C2H3 H
e + C2H4(v1) => e + C2H3 + H		! f45 * Bolsig+ C2H4(v1) -> C2H3 H
e + C2H4(v2) => e + C2H3 + H		! f45 * Bolsig+ C2H4(v2) -> C2H3 H
e + C2H4 => e + C2H2 + H2		! f46 * Bolsig+ C2H4 -> C2H2 H2
e + C2H4(v1) => e + C2H2 + H2		! f46 * Bolsig+ C2H4(v1) -> C2H2 H2
e + C2H4(v2) => e + C2H2 + H2		! f46 * Bolsig+ C2H4(v2) -> C2H2 H2
e + C2H4 => e + C2H2 + H + H		! f47 * Bolsig+ C2H4 -> C2H2 H H
e + C2H4(v1) => e + C2H2 + H + H		! f47 * Bolsig+ C2H4(v1) -> C2H2 H H
e + C2H4(v2) => e + C2H2 + H + H		! f47 * Bolsig+ C2H4(v2) -> C2H2 H H
e + C2H4 => e + CH3 + CH		! f48 * Bolsig+ C2H4 -> CH3 CH
e + C2H4(v1) => e + CH3 + CH		! f48 * Bolsig+ C2H4(v1) -> CH3 CH
e + C2H4(v2) => e + CH3 + CH		! f48 * Bolsig+ C2H4(v2) -> CH3 CH
e + C2H4 => e + CH2 + CH2		! f49 * Bolsig+ C2H4 -> CH2 CH2
e + C2H4(v1) => e + CH2 + CH2		! f49 * Bolsig+ C2H4(v1) -> CH2 CH2
e + C2H4(v2) => e + CH2 + CH2		! f49 * Bolsig+ C2H4(v2) -> CH2 CH2
e + C2H3 => e + C2H2 + H		! f50 * Bolsig+ C2H3 -> C2H2 H
e + C2H3 => e + CH2 + CH		! f51 * Bolsig+ C2H3 -> CH2 CH
e + C2H2 => e + CH + CH		! f52 * Bolsig+ C2H2 -> CH CH
e + C2H2(v5) => e + CH + CH		! f52 * Bolsig+ C2H2(v5) -> CH CH
e + C2H2(v2) => e + CH + CH		! f52 * Bolsig+ C2H2(v2) -> CH CH
e + C2H2(v13) => e + CH + CH		! f52 * Bolsig+ C2H2(v13) -> CH CH
e + C2H6 => e + e + C2H6^+		! f53 * Bolsig+ C2H6 -> C2H6^+
e + C2H6(v24) => e + e + C2H6^+		! f53 * Bolsig+ C2H6(v24) -> C2H6^+
e + C2H6(v13) => e + e + C2H6^+		! f53 * Bolsig+ C2H6(v13) -> C2H6^+
e + C2H6 => e + e + H + C2H5^+		! f54 * Bolsig+ C2H6 -> H C2H5^+
e + C2H6(v24) => e + e + H + C2H5^+		! f54 * Bolsig+ C2H6(v24) -> H C2H5^+
e + C2H6(v13) => e + e + H + C2H5^+		! f54 * Bolsig+ C2H6(v13) -> H C2H5^+
e + C2H6 => e + e + H2 + C2H4^+		! f55 * Bolsig+ C2H6 -> H2 C2H4^+
e + C2H6(v24) => e + e + H2 + C2H4^+		! f55 * Bolsig+ C2H6(v24) -> H2 C2H4^+
e + C2H6(v13) => e + e + H2 + C2H4^+		! f55 * Bolsig+ C2H6(v13) -> H2 C2H4^+
e + C2H6 => e + e + H2 + H + C2H3^+		! f56 * Bolsig+ C2H6 -> H2 H C2H3^+
e + C2H6(v24) => e + e + H2 + H + C2H3^+		! f56 * Bolsig+ C2H6(v24) -> H2 H C2H3^+
e + C2H6(v13) => e + e + H2 + H + C2H3^+		! f56 * Bolsig+ C2H6(v13) -> H2 H C2H3^+
e + C2H6 => e + e + H2 + H2 + C2H2^+		! f57 * Bolsig+ C2H6 -> H2 H2 C2H2^+
e + C2H6(v24) => e + e + H2 + H2 + C2H2^+		! f57 * Bolsig+ C2H6(v24) -> H2 H2 C2H2^+
e + C2H6(v13) => e + e + H2 + H2 + C2H2^+		! f57 * Bolsig+ C2H6(v13) -> H2 H2 C2H2^+
e + C2H6 => e + e + CH3 + CH3^+		! f58 * Bolsig+ C2H6 -> CH3 CH3^+
e + C2H6(v24) => e + e + CH3 + CH3^+		! f58 * Bolsig+ C2H6(v24) -> CH3 CH3^+
e + C2H6(v13) => e + e + CH3 + CH3^+		! f58 * Bolsig+ C2H6(v13) -> CH3 CH3^+
e + C2H6 => e + e + CH4 + CH2^+		! f59 * Bolsig+ C2H6 -> CH4 CH2^+
e + C2H6(v24) => e + e + CH4 + CH2^+		! f59 * Bolsig+ C2H6(v24) -> CH4 CH2^+
e + C2H6(v13) => e + e + CH4 + CH2^+		! f59 * Bolsig+ C2H6(v13) -> CH4 CH2^+
e + C2H5 => e + e + C2H5^+		! f60 * Bolsig+ C2H5 -> C2H5^+
e + C2H5 => e + e + H + C2H4^+		! f61 * Bolsig+ C2H5 -> H C2H4^+
e + C2H5 => e + e + H2 + C2H3^+		! f62 * Bolsig+ C2H5 -> H2 C2H3^+
e + C2H5 => e + e + H2 + H + C2H2^+		! f63 * Bolsig+ C2H5 -> H2 H C2H2^+
e + C2H5 => e + e + CH2 + CH3^+		! f64 * Bolsig+ C2H5 -> CH2 CH3^+
e + C2H5 => e + e + CH3 + CH2^+		! f65 * Bolsig+ C2H5 -> CH3 CH2^+
e + C2H5 => e + e + CH4 + CH^+		! f66 * Bolsig+ C2H5 -> CH4 CH^+
e + C2H4 => e + e + C2H4^+		! f67 * Bolsig+ C2H4 -> C2H4^+
e + C2H4(v1) => e + e + C2H4^+		! f67 * Bolsig+ C2H4(v1) -> C2H4^+
e + C2H4(v2) => e + e + C2H4^+		! f67 * Bolsig+ C2H4(v2) -> C2H4^+
e + C2H4 => e + e + H + C2H3^+		! f68 * Bolsig+ C2H4 -> H C2H3^+
e + C2H4(v1) => e + e + H + C2H3^+		! f68 * Bolsig+ C2H4(v1) -> H C2H3^+
e + C2H4(v2) => e + e + H + C2H3^+		! f68 * Bolsig+ C2H4(v2) -> H C2H3^+
e + C2H4 => e + e + CH + CH3^+		! f69 * Bolsig+ C2H4 -> CH CH3^+
e + C2H4(v1) => e + e + CH + CH3^+		! f69 * Bolsig+ C2H4(v1) -> CH CH3^+
e + C2H4(v2) => e + e + CH + CH3^+		! f69 * Bolsig+ C2H4(v2) -> CH CH3^+
e + C2H4 => e + e + CH2 + CH2^+		! f70 * Bolsig+ C2H4 -> CH2 CH2^+
e + C2H4(v1) => e + e + CH2 + CH2^+		! f70 * Bolsig+ C2H4(v1) -> CH2 CH2^+
e + C2H4(v2) => e + e + CH2 + CH2^+		! f70 * Bolsig+ C2H4(v2) -> CH2 CH2^+
e + C2H4 => e + e + CH3 + CH^+		! f71 * Bolsig+ C2H4 -> CH3 CH^+
e + C2H4(v1) => e + e + CH3 + CH^+		! f71 * Bolsig+ C2H4(v1) -> CH3 CH^+
e + C2H4(v2) => e + e + CH3 + CH^+		! f71 * Bolsig+ C2H4(v2) -> CH3 CH^+
e + C2H3 => e + e + C2H3^+		! f72 * Bolsig+ C2H3 -> C2H3^+
e + C2H3 => e + e + H + C2H2^+		! f73 * Bolsig+ C2H3 -> H C2H2^+
e + C2H3 => e + e + CH + CH2^+		! f74 * Bolsig+ C2H3 -> CH CH2^+
e + C2H3 => e + e + CH2 + CH^+		! f75 * Bolsig+ C2H3 -> CH2 CH^+
e + C2H3 => e + e + C2H2 + H^+		! f76 * Bolsig+ C2H3 -> C2H2 H^+
e + C2H2 => e + e + C2H2^+		! f77 * Bolsig+ C2H2 -> C2H2^+
e + C2H2(v5) => e + e + C2H2^+		! f77 * Bolsig+ C2H2(v5) -> C2H2^+
e + C2H2(v2) => e + e + C2H2^+		! f77 * Bolsig+ C2H2(v2) -> C2H2^+
e + C2H2(v13) => e + e + C2H2^+		! f77 * Bolsig+ C2H2(v13) -> C2H2^+
e + C2H2 => e + e + CH + CH^+		! f78 * Bolsig+ C2H2 -> CH CH^+
e + C2H2(v5) => e + e + CH + CH^+		! f78 * Bolsig+ C2H2(v5) -> CH CH^+
e + C2H2(v2) => e + e + CH + CH^+		! f78 * Bolsig+ C2H2(v2) -> CH CH^+
e + C2H2(v13) => e + e + CH + CH^+		! f78 * Bolsig+ C2H2(v13) -> CH CH^+
e + C3H8 => e + C3H7 + H		! f79 * Bolsig+ C3H8 -> C3H7 H
e + C3H8(v1) => e + C3H7 + H		! f79 * Bolsig+ C3H8(v1) -> C3H7 H
e + C3H8(v2) => e + C3H7 + H		! f79 * Bolsig+ C3H8(v2) -> C3H7 H
e + C3H8 => e + C3H6 + H2		! f80 * Bolsig+ C3H8 -> C3H6 H2
e + C3H8(v1) => e + C3H6 + H2		! f80 * Bolsig+ C3H8(v1) -> C3H6 H2
e + C3H8(v2) => e + C3H6 + H2		! f80 * Bolsig+ C3H8(v2) -> C3H6 H2
e + C3H7 => e + C3H6 + H		! f81 * Bolsig+ C3H7 -> C3H6 H
e + C3H8 => e + e + C3H8^+		! f82 * Bolsig+ C3H8 -> C3H8^+
e + C3H8(v1) => e + e + C3H8^+		! f82 * Bolsig+ C3H8(v1) -> C3H8^+
e + C3H8(v2) => e + e + C3H8^+		! f82 * Bolsig+ C3H8(v2) -> C3H8^+
e + C3H8 => e + e + H + C3H7^+		! f83 * Bolsig+ C3H8 -> H C3H7^+
e + C3H8(v1) => e + e + H + C3H7^+		! f83 * Bolsig+ C3H8(v1) -> H C3H7^+
e + C3H8(v2) => e + e + H + C3H7^+		! f83 * Bolsig+ C3H8(v2) -> H C3H7^+
e + C3H8 => e + e + H2 + C3H6^+		! f84 * Bolsig+ C3H8 -> H2 C3H6^+
e + C3H8(v1) => e + e + H2 + C3H6^+		! f84 * Bolsig+ C3H8(v1) -> H2 C3H6^+
e + C3H8(v2) => e + e + H2 + C3H6^+		! f84 * Bolsig+ C3H8(v2) -> H2 C3H6^+
e + C3H7 => e + e + C3H7^+		! f85 * Bolsig+ C3H7 -> C3H7^+
e + C3H7 => e + e + H + C3H6^+		! f86 * Bolsig+ C3H7 -> H C3H6^+
e + C3H6 => e + e + C3H6^+		! f87 * Bolsig+ C3H6 -> C3H6^+
e + C3H6(v) => e + e + C3H6^+		! f87 * Bolsig+ C3H6(v) -> C3H6^+
e + C3H6 => e + C2H2 + CH4		! f88 * Bolsig+ C3H6 -> C2H2 CH4
e + C3H6(v) => e + C2H2 + CH4		! f88 * Bolsig+ C3H6(v) -> C2H2 CH4
e + C3H6 => e + e + C2H2 + CH4^+		! f89 * Bolsig+ C3H6 -> C2H2 CH4^+
e + C3H6(v) => e + e + C2H2 + CH4^+		! f89 * Bolsig+ C3H6(v) -> C2H2 CH4^+

# Ion Recombination Reaction
e + e + CH^+ => e + CH		! f90 * 1.00d0
e + e + CH2^+ => e + CH2		! f91 * 1.00d0
e + e + CH3^+ => e + CH3		! f92 * 1.00d0
e + e + CH4^+ => e + CH4		! f93 * 1.00d0
e + e + C2H2^+ => e + C2H2		! f94 * 1.00d0
e + e + C2H3^+ => e + C2H3		! f95 * 1.00d0
e + e + C2H4^+ => e + C2H4		! f96 * 1.00d0
e + e + C2H5^+ => e + C2H5		! f97 * 1.00d0
e + e + C2H6^+ => e + C2H6		! f98 * 1.00d0
e + e + C3H6^+ => e + C3H6		! f99 * 1.00d0
e + e + C3H7^+ => e + C3H7		! f100 * 1.00d0
e + e + C3H8^+ => e + C3H8		! f101 * 1.00d0

# Gas Phase Reaction
e + CH4^+ => CH3 + H		! f102 * 1.18d-08 * (300./Tgas)**0.5
e + CH4^+ => CH2 + H + H		! f103 * 2.42d-08 * (300./Tgas)**0.5
e + CH4^+ => CH + H2 + H		! f104 * 1.41d-08 * (300./Tgas)**0.5
e + CH3^+ => CH2 + H		! f105 * 2.25d-08 * (300./Tgas)**0.5
e + CH3^+ => CH + H2		! f106 * 7.88d-09 * (300./Tgas)**0.5
e + CH3^+ => CH + H + H		! f107 * 9.00d-09 * (300./Tgas)**0.5
e + CH3^+ => C + H2 + H		! f108 * 1.69d-08 * (300./Tgas)**0.5
e + CH2^+ => CH + H		! f109 * 1.00d-08 * (300./Tgas)**0.5
e + CH2^+ => C + H2		! f110 * 4.82d-09 * (300./Tgas)**0.5
e + CH2^+ => C + H + H		! f111 * 2.53d-08 * (300./Tgas)**0.5
e + CH^+ => C + H		! f112 * 3.23d-08 * (300./Tgas)**0.42
e + C2H6^+ => C2H5 + H		! f113 * 2.19d-08 * (300./Tgas)**0.71
e + C2H6^+ => C2H4 + H + H		! f114 * 3.36d-08 * (300./Tgas)**0.71
e + C2H5^+ => C2H4 + H		! f115 * 7.70d-09 * (300./Tgas)**0.71
e + C2H5^+ => C2H3 + H + H		! f116 * 1.92d-08 * (300./Tgas)**0.71
e + C2H5^+ => C2H2 + H2 + H		! f117 * 1.60d-08 * (300./Tgas)**0.71
e + C2H5^+ => C2H2 + H + H + H		! f118 * 8.98d-09 * (300./Tgas)**0.71
e + C2H5^+ => CH3 + CH2		! f119 * 9.62d-09 * (300./Tgas)**0.71
e + C2H4^+ => C2H3 + H		! f120 * 8.29d-09 * (300./Tgas)**0.71
e + C2H4^+ => C2H2 + H + H		! f121 * 3.43d-08 * (300./Tgas)**0.71
e + C2H3^+ => C2H2 + H		! f122 * 1.34d-08 * (300./Tgas)**0.71
e + C2H2^+ => CH + CH		! f123 * 4.87d-09 * (300./Tgas)**0.71
e + H2^+ => H + H		! f124 * 3.17d21/(6.022d23 * Te**4.5)
e + H3^+ => H + H2		! f125 * 3.17d21/(6.022d23 * Te**4.5)
H2 + H2^+ => H + H3^+		! f126 * 2.11d-09
C2H6 + CH4^+ => CH4 + H2 + C2H4^+		! f127 * 1.91d-9
C2H6(v24) + CH4^+ => CH4 + H2 + C2H4^+		! f127 * 1.91d-9
C2H6(v13) + CH4^+ => CH4 + H2 + C2H4^+		! f127 * 1.91d-9
C2H4 + CH4^+ => CH3 + C2H5^+		! f128 * 4.23d-10