ELEMENTS
e C H
END

SPECIES
e C CH CH^+ CH2 CH2^+ CH3 CH3^+ CH4 CH4(v13) CH4(v24) CH4^+ C2H2 C2H2(v13) C2H2(v2) C2H2(v5) C2H2^+ C2H3 C2H3^+ C2H4 C2H4(v1) C2H4(v2) C2H4^+ C2H5 C2H5^+
C2H6 C2H6(v13) C2H6(v24) C2H6^+ C3H5 C3H6 C3H6(v) C3H6^+ C3H7 C3H7^+ C3H8 C3H8(v1) C3H8(v2) C3H8^+ C4H9 C4H9H C2H C5H12 H H2 H2^+ H3^+ H^+
END

BOLSIG
CH CH2 CH3 CH4 CH4(v13) CH4(v24) C2H2 C2H2(v13) C2H2(v2) C2H2(v5) C2H3 C2H4 C2H4(v1) C2H4(v2) C2H5 C2H6 C2H6(v13) C2H6(v24) C3H6 C3H6(v) C3H7 C3H8 C3H8(v1) C3H8(v2)
END

REACTIONS
# Gas Constant
$ double precision, parameter :: R = 8.314d-3

# Compensation Parameters
$ double precision, parameter :: f0 = 1.5573d+2
$ double precision, parameter :: f1 = 2.6242d+2
$ double precision, parameter :: f2 = 2.2566d0
$ double precision, parameter :: f3 = 9.0533d+2
$ double precision, parameter :: f4 = 1.3307d-7
$ double precision, parameter :: f5 = 9.8850d-7
$ double precision, parameter :: f6 = 3.3508d+1
$ double precision, parameter :: f7 = 1.1136d+1
$ double precision, parameter :: f8 = 2.4835d-3
$ double precision, parameter :: f9 = 4.4604d-6
$ double precision, parameter :: f10 = 1.2520d-4
$ double precision, parameter :: f11 = 1.5116d-2
$ double precision, parameter :: f12 = 2.9717d+2
$ double precision, parameter :: f13 = 1.4988d-2
$ double precision, parameter :: f14 = 2.7368d-6
$ double precision, parameter :: f15 = 1.1041d0
$ double precision, parameter :: f16 = 2.2705d-1
$ double precision, parameter :: f17 = 2.3796d0
$ double precision, parameter :: f18 = 9.4124d-6
$ double precision, parameter :: f19 = 5.5649d-6
$ double precision, parameter :: f20 = 1.7378d-1
$ double precision, parameter :: f21 = 7.8477d-3
$ double precision, parameter :: f22 = 8.7809d-8
$ double precision, parameter :: f23 = 4.9298d-1
$ double precision, parameter :: f24 = 2.7595d-6
$ double precision, parameter :: f25 = 2.2522d+2
$ double precision, parameter :: f26 = 1.0492d-5
$ double precision, parameter :: f27 = 5.5926d-7
$ double precision, parameter :: f28 = 3.0874d-4
$ double precision, parameter :: f29 = 2.5807d-7
$ double precision, parameter :: f30 = 8.6317d-2
$ double precision, parameter :: f31 = 1.1989d-6
$ double precision, parameter :: f32 = 8.8149d+1
$ double precision, parameter :: f33 = 1.6878d-2
$ double precision, parameter :: f34 = 1.1287d+1
$ double precision, parameter :: f35 = 5.0404d-8
$ double precision, parameter :: f36 = 1.7368d-5
$ double precision, parameter :: f37 = 8.1999d-7
$ double precision, parameter :: f38 = 7.9112d-1
$ double precision, parameter :: f39 = 4.2658d-4
$ double precision, parameter :: f40 = 2.3158d-4
$ double precision, parameter :: f41 = 5.9426d+2
$ double precision, parameter :: f42 = 9.9764d-5
$ double precision, parameter :: f43 = 3.6655d-1
$ double precision, parameter :: f44 = 4.1152d-7
$ double precision, parameter :: f45 = 9.1785d+1
$ double precision, parameter :: f46 = 8.5703d-7
$ double precision, parameter :: f47 = 4.4372d-5
$ double precision, parameter :: f48 = 1.5445d+1
$ double precision, parameter :: f49 = 4.9232d0
$ double precision, parameter :: f50 = 6.2144d-1
$ double precision, parameter :: f51 = 1.5304d-3
$ double precision, parameter :: f52 = 1.1780d-6
$ double precision, parameter :: f53 = 1.9907d-6
$ double precision, parameter :: f54 = 1.7646d-2
$ double precision, parameter :: f55 = 4.8089d-8
$ double precision, parameter :: f56 = 3.0639d+2
$ double precision, parameter :: f57 = 4.1584d-3
$ double precision, parameter :: f58 = 3.7701d-2
$ double precision, parameter :: f59 = 1.3334d-2
$ double precision, parameter :: f60 = 2.9171d-8
$ double precision, parameter :: f61 = 1.5149d-6
$ double precision, parameter :: f62 = 6.3931d+2
$ double precision, parameter :: f63 = 6.3032d0
$ double precision, parameter :: f64 = 2.1028d-5
$ double precision, parameter :: f65 = 1.3683d-7
$ double precision, parameter :: f66 = 1.0097d-8
$ double precision, parameter :: f67 = 8.6570d-7
$ double precision, parameter :: f68 = 5.5313d+1
$ double precision, parameter :: f69 = 6.3367d-8
$ double precision, parameter :: f70 = 1.7271d-7
$ double precision, parameter :: f71 = 2.9075d-6
$ double precision, parameter :: f72 = 3.8813d-6
$ double precision, parameter :: f73 = 5.3966d+2
$ double precision, parameter :: f74 = 8.3232d-6
$ double precision, parameter :: f75 = 4.5905d-5
$ double precision, parameter :: f76 = 1.1203d+1
$ double precision, parameter :: f77 = 5.9340d0
$ double precision, parameter :: f78 = 8.4993d-2
$ double precision, parameter :: f79 = 4.2614d0
$ double precision, parameter :: f80 = 3.5846d+2
$ double precision, parameter :: f81 = 8.9045d-5
$ double precision, parameter :: f82 = 8.3121d-6
$ double precision, parameter :: f83 = 4.8131d-7
$ double precision, parameter :: f84 = 2.5979d-6
$ double precision, parameter :: f85 = 4.2724d-5
$ double precision, parameter :: f86 = 2.0836d-2
$ double precision, parameter :: f87 = 2.0778d-4
$ double precision, parameter :: f88 = 1.1457d-8
$ double precision, parameter :: f89 = 4.1390d-3
$ double precision, parameter :: f90 = 5.6445d-6
$ double precision, parameter :: f91 = 2.6811d-8
$ double precision, parameter :: f92 = 4.3643d-1
$ double precision, parameter :: f93 = 4.7161d-5
$ double precision, parameter :: f94 = 7.9131d-1
$ double precision, parameter :: f95 = 6.8941d-7
$ double precision, parameter :: f96 = 6.1939d-7
$ double precision, parameter :: f97 = 8.9301d-3
$ double precision, parameter :: f98 = 1.1494d0
$ double precision, parameter :: f99 = 1.8373d-8
$ double precision, parameter :: f100 = 1.1832d-8
$ double precision, parameter :: f101 = 2.0798d+2
$ double precision, parameter :: f102 = 3.8410d-4
$ double precision, parameter :: f103 = 1.3685d-7
$ double precision, parameter :: f104 = 1.1759d-2
$ double precision, parameter :: f105 = 1.9600d-1
$ double precision, parameter :: f106 = 1.6618d-5
$ double precision, parameter :: f107 = 4.8964d-3
$ double precision, parameter :: f108 = 3.7049d+1
$ double precision, parameter :: f109 = 3.3164d+2
$ double precision, parameter :: f110 = 1.8521d-1
$ double precision, parameter :: f111 = 2.3112d+1
$ double precision, parameter :: f112 = 2.6148d-1
$ double precision, parameter :: f113 = 2.3248d-2
$ double precision, parameter :: f114 = 6.6444d-4
$ double precision, parameter :: f115 = 9.9428d-3
$ double precision, parameter :: f116 = 7.2312d+1
$ double precision, parameter :: f117 = 6.5750d+2
$ double precision, parameter :: f118 = 1.1546d-4
$ double precision, parameter :: f119 = 2.1919d-6
$ double precision, parameter :: f120 = 4.3798d+2
$ double precision, parameter :: f121 = 6.0557d+2
$ double precision, parameter :: f122 = 1.8135d-7
$ double precision, parameter :: f123 = 1.3527d-4
$ double precision, parameter :: f124 = 1.9794d-3
$ double precision, parameter :: f125 = 9.3593d-2
$ double precision, parameter :: f126 = 2.4823d0
$ double precision, parameter :: f127 = 1.7378d-2
$ double precision, parameter :: f128 = 3.6865d-1
$ double precision, parameter :: f129 = 2.7751d-1
$ double precision, parameter :: f130 = 1.9108d0
$ double precision, parameter :: f131 = 4.0661d-7
$ double precision, parameter :: f132 = 2.7289d+1
$ double precision, parameter :: f133 = 1.3382d-4
$ double precision, parameter :: f134 = 5.5201d+1
$ double precision, parameter :: f135 = 5.5738d-5
$ double precision, parameter :: f136 = 4.7045d-2
$ double precision, parameter :: f137 = 3.4106d-5
$ double precision, parameter :: f138 = 5.3889d-2
$ double precision, parameter :: f139 = 3.5988d-2
$ double precision, parameter :: f140 = 9.1069d-1
$ double precision, parameter :: f141 = 6.5908d0
$ double precision, parameter :: f142 = 3.6064d+2
$ double precision, parameter :: f143 = 2.9024d-6
$ double precision, parameter :: f144 = 5.5689d-5
$ double precision, parameter :: f145 = 4.4671d+1
$ double precision, parameter :: f146 = 4.9495d0
$ double precision, parameter :: f147 = 7.3243d-3
$ double precision, parameter :: f148 = 1.8424d-6
$ double precision, parameter :: f149 = 5.6679d-6
$ double precision, parameter :: f150 = 1.3874d-8
$ double precision, parameter :: f151 = 6.4579d-5
$ double precision, parameter :: f152 = 1.7147d+2
$ double precision, parameter :: f153 = 4.9658d-4
$ double precision, parameter :: f154 = 1.6340d-3
$ double precision, parameter :: f155 = 1.1128d-1
$ double precision, parameter :: f156 = 2.2916d-3
$ double precision, parameter :: f157 = 7.0051d+2
$ double precision, parameter :: f158 = 3.6052d+2
$ double precision, parameter :: f159 = 4.1315d-4
$ double precision, parameter :: f160 = 4.7043d-6
$ double precision, parameter :: f161 = 2.5758d-2
$ double precision, parameter :: f162 = 5.3918d-5
$ double precision, parameter :: f163 = 1.0813d-1
$ double precision, parameter :: f164 = 6.7135d-4
$ double precision, parameter :: f165 = 5.9263d-8
$ double precision, parameter :: f166 = 1.0075d-1
$ double precision, parameter :: f167 = 1.0580d-8
$ double precision, parameter :: f168 = 3.7208d-2
$ double precision, parameter :: f169 = 3.7752d0
$ double precision, parameter :: f170 = 5.8996d-1
$ double precision, parameter :: f171 = 9.7473d-1
$ double precision, parameter :: f172 = 2.5338d-6
$ double precision, parameter :: f173 = 1.6031d-8
$ double precision, parameter :: f174 = 7.5854d-7
$ double precision, parameter :: f175 = 9.4437d-6
$ double precision, parameter :: f176 = 5.9618d-5
$ double precision, parameter :: f177 = 1.9539d-2
$ double precision, parameter :: f178 = 9.9784d-6
$ double precision, parameter :: f179 = 6.7565d-5
$ double precision, parameter :: f180 = 7.8623d+2
$ double precision, parameter :: f181 = 1.2567d-5
$ double precision, parameter :: f182 = 1.4380d-3
$ double precision, parameter :: f183 = 2.7638d+1
$ double precision, parameter :: f184 = 2.4687d-5
$ double precision, parameter :: f185 = 7.1265d-8
$ double precision, parameter :: f186 = 1.6560d+1
$ double precision, parameter :: f187 = 1.5743d-7
$ double precision, parameter :: f188 = 1.4290d-1
$ double precision, parameter :: f189 = 1.2520d-2
$ double precision, parameter :: f190 = 1.2721d-1
$ double precision, parameter :: f191 = 2.0747d-7
$ double precision, parameter :: f192 = 9.7413d+1
$ double precision, parameter :: f193 = 1.8704d-1
$ double precision, parameter :: f194 = 1.1361d+2
$ double precision, parameter :: f195 = 1.6149d-7
$ double precision, parameter :: f196 = 5.6937d+1
$ double precision, parameter :: f197 = 6.3937d-7
$ double precision, parameter :: f198 = 1.3587d+2
$ double precision, parameter :: f199 = 7.7134d-6
$ double precision, parameter :: f200 = 6.7379d-1
$ double precision, parameter :: f201 = 1.2357d+1
$ double precision, parameter :: f202 = 2.4493d-5
$ double precision, parameter :: f203 = 2.8364d0
$ double precision, parameter :: f204 = 5.0448d-4
$ double precision, parameter :: f205 = 1.1409d-5
$ double precision, parameter :: f206 = 5.3295d+2
$ double precision, parameter :: f207 = 4.6998d-5
$ double precision, parameter :: f208 = 2.3196d-4
$ double precision, parameter :: f209 = 2.3025d-3
$ double precision, parameter :: f210 = 7.2963d-1
$ double precision, parameter :: f211 = 1.0628d-6
$ double precision, parameter :: f212 = 7.2021d-2
$ double precision, parameter :: f213 = 2.4404d-2
$ double precision, parameter :: f214 = 1.3499d-6
$ double precision, parameter :: f215 = 1.4955d0
$ double precision, parameter :: f216 = 3.1079d-6
$ double precision, parameter :: f217 = 6.8382d-4
$ double precision, parameter :: f218 = 9.2056d-3
$ double precision, parameter :: f219 = 3.9327d-4
$ double precision, parameter :: f220 = 4.9411d-2
$ double precision, parameter :: f221 = 1.9840d-5
$ double precision, parameter :: f222 = 1.3594d-4
$ double precision, parameter :: f223 = 1.5267d-4
$ double precision, parameter :: f224 = 3.1450d-5
$ double precision, parameter :: f225 = 1.5701d-3
$ double precision, parameter :: f226 = 1.1187d-3
$ double precision, parameter :: f227 = 2.1142d-8
$ double precision, parameter :: f228 = 4.0111d-7
$ double precision, parameter :: f229 = 1.8540d-4
$ double precision, parameter :: f230 = 6.1088d-2
$ double precision, parameter :: f231 = 4.2413d-5
$ double precision, parameter :: f232 = 1.4468d0
$ double precision, parameter :: f233 = 2.4144d-3
$ double precision, parameter :: f234 = 2.0804d-3
$ double precision, parameter :: f235 = 1.2516d-1
$ double precision, parameter :: f236 = 1.0442d-1
$ double precision, parameter :: f237 = 2.3194d+2
$ double precision, parameter :: f238 = 5.2580d0
$ double precision, parameter :: f239 = 9.7332d+1
$ double precision, parameter :: f240 = 6.3191d+2
$ double precision, parameter :: f241 = 2.9523d-2
$ double precision, parameter :: f242 = 1.2140d-1
$ double precision, parameter :: f243 = 3.4968d-4
$ double precision, parameter :: f244 = 2.6904d-3
$ double precision, parameter :: f245 = 2.8733d-6
$ double precision, parameter :: f246 = 1.7124d-8
$ double precision, parameter :: f247 = 3.3335d-1
$ double precision, parameter :: f248 = 2.5903d-8
$ double precision, parameter :: f249 = 1.2302d-7
$ double precision, parameter :: f250 = 4.8946d-2
$ double precision, parameter :: f251 = 4.1842d-7
$ double precision, parameter :: f252 = 2.1952d-4
$ double precision, parameter :: f253 = 3.9002d-6
$ double precision, parameter :: f254 = 3.0530d-4
$ double precision, parameter :: f255 = 6.6918d-6
$ double precision, parameter :: f256 = 1.3412d-7
$ double precision, parameter :: f257 = 2.2838d-1
$ double precision, parameter :: f258 = 1.3228d-5
$ double precision, parameter :: f259 = 1.0271d-2
$ double precision, parameter :: f260 = 3.8905d-4
$ double precision, parameter :: f261 = 5.8184d-4
$ double precision, parameter :: f262 = 5.7945d-7
$ double precision, parameter :: f263 = 2.7992d-5
$ double precision, parameter :: f264 = 5.7399d-6
$ double precision, parameter :: f265 = 3.2221d+1
$ double precision, parameter :: f266 = 5.3440d0
$ double precision, parameter :: f267 = 3.2325d+2
$ double precision, parameter :: f268 = 1.4045d-1
$ double precision, parameter :: f269 = 7.1304d-2
$ double precision, parameter :: f270 = 6.6819d-1
$ double precision, parameter :: f271 = 3.6925d+2
$ double precision, parameter :: f272 = 1.6965d-3
$ double precision, parameter :: f273 = 2.2156d0
$ double precision, parameter :: f274 = 1.8862d-3
$ double precision, parameter :: f275 = 2.0605d0
$ double precision, parameter :: f276 = 8.1980d0
$ double precision, parameter :: f277 = 1.0436d-1
$ double precision, parameter :: f278 = 4.9533d-7
$ double precision, parameter :: f279 = 1.9520d+1
$ double precision, parameter :: f280 = 4.3687d-2
$ double precision, parameter :: f281 = 2.1401d+2
$ double precision, parameter :: f282 = 4.4187d+2
$ double precision, parameter :: f283 = 8.1577d+2
$ double precision, parameter :: f284 = 3.9287d-2
$ double precision, parameter :: f285 = 7.5915d-2
$ double precision, parameter :: f286 = 5.1170d0
$ double precision, parameter :: f287 = 5.6797d0
$ double precision, parameter :: f288 = 3.3494d-1
$ double precision, parameter :: f289 = 5.5270d+2
$ double precision, parameter :: f290 = 5.5993d-8
$ double precision, parameter :: f291 = 1.9890d+1
$ double precision, parameter :: f292 = 2.4916d0
$ double precision, parameter :: f293 = 1.2322d-4
$ double precision, parameter :: f294 = 1.9453d0
$ double precision, parameter :: f295 = 7.4106d-7
$ double precision, parameter :: f296 = 4.6854d0
$ double precision, parameter :: f297 = 1.3147d-6
$ double precision, parameter :: f298 = 2.2824d-3
$ double precision, parameter :: f299 = 1.8189d0
$ double precision, parameter :: f300 = 3.3014d-8
$ double precision, parameter :: f301 = 5.1315d-6
$ double precision, parameter :: f302 = 4.8444d-3
$ double precision, parameter :: f303 = 1.2255d0
$ double precision, parameter :: f304 = 2.6341d-2
$ double precision, parameter :: f305 = 2.3989d+2
$ double precision, parameter :: f306 = 8.0058d+1
$ double precision, parameter :: f307 = 3.2016d-7
$ double precision, parameter :: f308 = 1.4352d-3
$ double precision, parameter :: f309 = 2.1581d-3
$ double precision, parameter :: f310 = 3.6167d-4
$ double precision, parameter :: f311 = 1.5647d-2
$ double precision, parameter :: f312 = 3.2763d-7
$ double precision, parameter :: f313 = 4.8857d-8
$ double precision, parameter :: f314 = 2.1688d-5
$ double precision, parameter :: f315 = 4.7719d-2

# Electron Collision Reaction
e + CH4 => e + CH4(v24)		! f0 * Bolsig+ CH4 -> CH4(v24)
e + CH4 => e + CH4(v13)		! f1 * Bolsig+ CH4 -> CH4(v13)
e + C2H6 => e + C2H6(v24)		! f2 * Bolsig+ C2H6 -> C2H6(v24)
e + C2H6 => e + C2H6(v13)		! f3 * Bolsig+ C2H6 -> C2H6(v13)
e + C2H4 => e + C2H4(v1)		! f4 * Bolsig+ C2H4 -> C2H4(v1)
e + C2H4 => e + C2H4(v2)		! f5 * Bolsig+ C2H4 -> C2H4(v2)
e + C2H2 => e + C2H2(v5)		! f6 * Bolsig+ C2H2 -> C2H2(v5)
e + C2H2 => e + C2H2(v2)		! f7 * Bolsig+ C2H2 -> C2H2(v2)
e + C2H2 => e + C2H2(v13)		! f8 * Bolsig+ C2H2 -> C2H2(v13)
e + C3H8 => e + C3H8(v1)		! f9 * Bolsig+ C3H8 -> C3H8(v1)
e + C3H8 => e + C3H8(v2)		! f10 * Bolsig+ C3H8 -> C3H8(v2)
e + C3H6 => e + C3H6(v)		! f11 * Bolsig+ C3H6 -> C3H6(v)
e + CH4 => e + CH3 + H		! f12 * Bolsig+ CH4 -> CH3 H
e + CH4(v24) => e + CH3 + H		! f12 * Bolsig+ CH4(v24) -> CH3 H
e + CH4(v13) => e + CH3 + H		! f12 * Bolsig+ CH4(v13) -> CH3 H
e + CH4 => e + CH2 + H2		! f13 * Bolsig+ CH4 -> CH2 H2
e + CH4(v24) => e + CH2 + H2		! f13 * Bolsig+ CH4(v24) -> CH2 H2
e + CH4(v13) => e + CH2 + H2		! f13 * Bolsig+ CH4(v13) -> CH2 H2
e + CH4 => e + CH + H2 + H		! f14 * Bolsig+ CH4 -> CH H2 H
e + CH4(v24) => e + CH + H2 + H		! f14 * Bolsig+ CH4(v24) -> CH H2 H
e + CH4(v13) => e + CH + H2 + H		! f14 * Bolsig+ CH4(v13) -> CH H2 H
e + CH4 => e + C + H2 + H2		! f15 * Bolsig+ CH4 -> C H2 H2
e + CH4(v24) => e + C + H2 + H2		! f15 * Bolsig+ CH4(v24) -> C H2 H2
e + CH4(v13) => e + C + H2 + H2		! f15 * Bolsig+ CH4(v13) -> C H2 H2
e + CH3 => e + CH2 + H		! f16 * Bolsig+ CH3 -> CH2 H
e + CH3 => e + CH + H2		! f17 * Bolsig+ CH3 -> CH H2
e + CH3 => e + C + H2 + H		! f18 * Bolsig+ CH3 -> C H2 H
e + CH2 => e + CH + H		! f19 * Bolsig+ CH2 -> CH H
e + CH2 => e + C + H2		! f20 * Bolsig+ CH2 -> C H2
e + CH2 => e + C + H + H		! f21 * Bolsig+ CH2 -> C H H
e + CH => e + C + H		! f22 * Bolsig+ CH -> C H
e + CH4 => e + e + CH4^+		! f23 * Bolsig+ CH4 -> CH4^+
e + CH4(v24) => e + e + CH4^+		! f23 * Bolsig+ CH4(v24) -> CH4^+
e + CH4(v13) => e + e + CH4^+		! f23 * Bolsig+ CH4(v13) -> CH4^+
e + CH4 => e + e + H + CH3^+		! f24 * Bolsig+ CH4 -> H CH3^+
e + CH4(v24) => e + e + H + CH3^+		! f24 * Bolsig+ CH4(v24) -> H CH3^+
e + CH4(v13) => e + e + H + CH3^+		! f24 * Bolsig+ CH4(v13) -> H CH3^+
e + CH4 => e + e + H2 + CH2^+		! f25 * Bolsig+ CH4 -> H2 CH2^+
e + CH4(v24) => e + e + H2 + CH2^+		! f25 * Bolsig+ CH4(v24) -> H2 CH2^+
e + CH4(v13) => e + e + H2 + CH2^+		! f25 * Bolsig+ CH4(v13) -> H2 CH2^+
e + CH4 => e + e + H2 + H + CH^+		! f26 * Bolsig+ CH4 -> H2 H CH^+
e + CH4(v24) => e + e + H2 + H + CH^+		! f26 * Bolsig+ CH4(v24) -> H2 H CH^+
e + CH4(v13) => e + e + H2 + H + CH^+		! f26 * Bolsig+ CH4(v13) -> H2 H CH^+
e + CH3 => e + e + CH3^+		! f27 * Bolsig+ CH3 -> CH3^+
e + CH3 => e + e + H + CH2^+		! f28 * Bolsig+ CH3 -> H CH2^+
e + CH3 => e + e + H2 + CH^+		! f29 * Bolsig+ CH3 -> H2 CH^+
e + CH2 => e + e + CH2^+		! f30 * Bolsig+ CH2 -> CH2^+
e + CH2 => e + e + H + CH^+		! f31 * Bolsig+ CH2 -> H CH^+
e + CH => e + e + CH^+		! f32 * Bolsig+ CH -> CH^+
e + C2H6 => e + C2H5 + H		! f33 * Bolsig+ C2H6 -> C2H5 H
e + C2H6(v24) => e + C2H5 + H		! f33 * Bolsig+ C2H6(v24) -> C2H5 H
e + C2H6(v13) => e + C2H5 + H		! f33 * Bolsig+ C2H6(v13) -> C2H5 H
e + C2H6 => e + C2H4 + H2		! f34 * Bolsig+ C2H6 -> C2H4 H2
e + C2H6(v24) => e + C2H4 + H2		! f34 * Bolsig+ C2H6(v24) -> C2H4 H2
e + C2H6(v13) => e + C2H4 + H2		! f34 * Bolsig+ C2H6(v13) -> C2H4 H2
e + C2H6 => e + C2H3 + H2 + H		! f35 * Bolsig+ C2H6 -> C2H3 H2 H
e + C2H6(v24) => e + C2H3 + H2 + H		! f35 * Bolsig+ C2H6(v24) -> C2H3 H2 H
e + C2H6(v13) => e + C2H3 + H2 + H		! f35 * Bolsig+ C2H6(v13) -> C2H3 H2 H
e + C2H6 => e + C2H2 + H2 + H2		! f36 * Bolsig+ C2H6 -> C2H2 H2 H2
e + C2H6(v24) => e + C2H2 + H2 + H2		! f36 * Bolsig+ C2H6(v24) -> C2H2 H2 H2
e + C2H6(v13) => e + C2H2 + H2 + H2		! f36 * Bolsig+ C2H6(v13) -> C2H2 H2 H2
e + C2H6 => e + CH4 + CH2		! f37 * Bolsig+ C2H6 -> CH4 CH2
e + C2H6(v24) => e + CH4 + CH2		! f37 * Bolsig+ C2H6(v24) -> CH4 CH2
e + C2H6(v13) => e + CH4 + CH2		! f37 * Bolsig+ C2H6(v13) -> CH4 CH2
e + C2H6 => e + CH3 + CH3		! f38 * Bolsig+ C2H6 -> CH3 CH3
e + C2H6(v24) => e + CH3 + CH3		! f38 * Bolsig+ C2H6(v24) -> CH3 CH3
e + C2H6(v13) => e + CH3 + CH3		! f38 * Bolsig+ C2H6(v13) -> CH3 CH3
e + C2H5 => e + C2H4 + H		! f39 * Bolsig+ C2H5 -> C2H4 H
e + C2H5 => e + C2H3 + H2		! f40 * Bolsig+ C2H5 -> C2H3 H2
e + C2H5 => e + C2H3 + H + H		! f41 * Bolsig+ C2H5 -> C2H3 H H
e + C2H5 => e + C2H2 + H2 + H		! f42 * Bolsig+ C2H5 -> C2H2 H2 H
e + C2H5 => e + CH4 + CH		! f43 * Bolsig+ C2H5 -> CH4 CH
e + C2H5 => e + CH3 + CH2		! f44 * Bolsig+ C2H5 -> CH3 CH2
e + C2H4 => e + C2H3 + H		! f45 * Bolsig+ C2H4 -> C2H3 H
e + C2H4(v1) => e + C2H3 + H		! f45 * Bolsig+ C2H4(v1) -> C2H3 H
e + C2H4(v2) => e + C2H3 + H		! f45 * Bolsig+ C2H4(v2) -> C2H3 H
e + C2H4 => e + C2H2 + H2		! f46 * Bolsig+ C2H4 -> C2H2 H2
e + C2H4(v1) => e + C2H2 + H2		! f46 * Bolsig+ C2H4(v1) -> C2H2 H2
e + C2H4(v2) => e + C2H2 + H2		! f46 * Bolsig+ C2H4(v2) -> C2H2 H2
e + C2H4 => e + C2H2 + H + H		! f47 * Bolsig+ C2H4 -> C2H2 H H
e + C2H4(v1) => e + C2H2 + H + H		! f47 * Bolsig+ C2H4(v1) -> C2H2 H H
e + C2H4(v2) => e + C2H2 + H + H		! f47 * Bolsig+ C2H4(v2) -> C2H2 H H
e + C2H4 => e + CH3 + CH		! f48 * Bolsig+ C2H4 -> CH3 CH
e + C2H4(v1) => e + CH3 + CH		! f48 * Bolsig+ C2H4(v1) -> CH3 CH
e + C2H4(v2) => e + CH3 + CH		! f48 * Bolsig+ C2H4(v2) -> CH3 CH
e + C2H4 => e + CH2 + CH2		! f49 * Bolsig+ C2H4 -> CH2 CH2
e + C2H4(v1) => e + CH2 + CH2		! f49 * Bolsig+ C2H4(v1) -> CH2 CH2
e + C2H4(v2) => e + CH2 + CH2		! f49 * Bolsig+ C2H4(v2) -> CH2 CH2
e + C2H3 => e + C2H2 + H		! f50 * Bolsig+ C2H3 -> C2H2 H
e + C2H3 => e + CH2 + CH		! f51 * Bolsig+ C2H3 -> CH2 CH
e + C2H2 => e + CH + CH		! f52 * Bolsig+ C2H2 -> CH CH
e + C2H2(v5) => e + CH + CH		! f52 * Bolsig+ C2H2(v5) -> CH CH
e + C2H2(v2) => e + CH + CH		! f52 * Bolsig+ C2H2(v2) -> CH CH
e + C2H2(v13) => e + CH + CH		! f52 * Bolsig+ C2H2(v13) -> CH CH
e + C2H6 => e + e + C2H6^+		! f53 * Bolsig+ C2H6 -> C2H6^+
e + C2H6(v24) => e + e + C2H6^+		! f53 * Bolsig+ C2H6(v24) -> C2H6^+
e + C2H6(v13) => e + e + C2H6^+		! f53 * Bolsig+ C2H6(v13) -> C2H6^+
e + C2H6 => e + e + H + C2H5^+		! f54 * Bolsig+ C2H6 -> H C2H5^+
e + C2H6(v24) => e + e + H + C2H5^+		! f54 * Bolsig+ C2H6(v24) -> H C2H5^+
e + C2H6(v13) => e + e + H + C2H5^+		! f54 * Bolsig+ C2H6(v13) -> H C2H5^+
e + C2H6 => e + e + H2 + C2H4^+		! f55 * Bolsig+ C2H6 -> H2 C2H4^+
e + C2H6(v24) => e + e + H2 + C2H4^+		! f55 * Bolsig+ C2H6(v24) -> H2 C2H4^+
e + C2H6(v13) => e + e + H2 + C2H4^+		! f55 * Bolsig+ C2H6(v13) -> H2 C2H4^+
e + C2H6 => e + e + H2 + H + C2H3^+		! f56 * Bolsig+ C2H6 -> H2 H C2H3^+
e + C2H6(v24) => e + e + H2 + H + C2H3^+		! f56 * Bolsig+ C2H6(v24) -> H2 H C2H3^+
e + C2H6(v13) => e + e + H2 + H + C2H3^+		! f56 * Bolsig+ C2H6(v13) -> H2 H C2H3^+
e + C2H6 => e + e + H2 + H2 + C2H2^+		! f57 * Bolsig+ C2H6 -> H2 H2 C2H2^+
e + C2H6(v24) => e + e + H2 + H2 + C2H2^+		! f57 * Bolsig+ C2H6(v24) -> H2 H2 C2H2^+
e + C2H6(v13) => e + e + H2 + H2 + C2H2^+		! f57 * Bolsig+ C2H6(v13) -> H2 H2 C2H2^+
e + C2H6 => e + e + CH3 + CH3^+		! f58 * Bolsig+ C2H6 -> CH3 CH3^+
e + C2H6(v24) => e + e + CH3 + CH3^+		! f58 * Bolsig+ C2H6(v24) -> CH3 CH3^+
e + C2H6(v13) => e + e + CH3 + CH3^+		! f58 * Bolsig+ C2H6(v13) -> CH3 CH3^+
e + C2H6 => e + e + CH4 + CH2^+		! f59 * Bolsig+ C2H6 -> CH4 CH2^+
e + C2H6(v24) => e + e + CH4 + CH2^+		! f59 * Bolsig+ C2H6(v24) -> CH4 CH2^+
e + C2H6(v13) => e + e + CH4 + CH2^+		! f59 * Bolsig+ C2H6(v13) -> CH4 CH2^+
e + C2H5 => e + e + C2H5^+		! f60 * Bolsig+ C2H5 -> C2H5^+
e + C2H5 => e + e + H + C2H4^+		! f61 * Bolsig+ C2H5 -> H C2H4^+
e + C2H5 => e + e + H2 + C2H3^+		! f62 * Bolsig+ C2H5 -> H2 C2H3^+
e + C2H5 => e + e + H2 + H + C2H2^+		! f63 * Bolsig+ C2H5 -> H2 H C2H2^+
e + C2H5 => e + e + CH2 + CH3^+		! f64 * Bolsig+ C2H5 -> CH2 CH3^+
e + C2H5 => e + e + CH3 + CH2^+		! f65 * Bolsig+ C2H5 -> CH3 CH2^+
e + C2H5 => e + e + CH4 + CH^+		! f66 * Bolsig+ C2H5 -> CH4 CH^+
e + C2H4 => e + e + C2H4^+		! f67 * Bolsig+ C2H4 -> C2H4^+
e + C2H4(v1) => e + e + C2H4^+		! f67 * Bolsig+ C2H4(v1) -> C2H4^+
e + C2H4(v2) => e + e + C2H4^+		! f67 * Bolsig+ C2H4(v2) -> C2H4^+
e + C2H4 => e + e + H + C2H3^+		! f68 * Bolsig+ C2H4 -> H C2H3^+
e + C2H4(v1) => e + e + H + C2H3^+		! f68 * Bolsig+ C2H4(v1) -> H C2H3^+
e + C2H4(v2) => e + e + H + C2H3^+		! f68 * Bolsig+ C2H4(v2) -> H C2H3^+
e + C2H4 => e + e + CH + CH3^+		! f69 * Bolsig+ C2H4 -> CH CH3^+
e + C2H4(v1) => e + e + CH + CH3^+		! f69 * Bolsig+ C2H4(v1) -> CH CH3^+
e + C2H4(v2) => e + e + CH + CH3^+		! f69 * Bolsig+ C2H4(v2) -> CH CH3^+
e + C2H4 => e + e + CH2 + CH2^+		! f70 * Bolsig+ C2H4 -> CH2 CH2^+
e + C2H4(v1) => e + e + CH2 + CH2^+		! f70 * Bolsig+ C2H4(v1) -> CH2 CH2^+
e + C2H4(v2) => e + e + CH2 + CH2^+		! f70 * Bolsig+ C2H4(v2) -> CH2 CH2^+
e + C2H4 => e + e + CH3 + CH^+		! f71 * Bolsig+ C2H4 -> CH3 CH^+
e + C2H4(v1) => e + e + CH3 + CH^+		! f71 * Bolsig+ C2H4(v1) -> CH3 CH^+
e + C2H4(v2) => e + e + CH3 + CH^+		! f71 * Bolsig+ C2H4(v2) -> CH3 CH^+
e + C2H3 => e + e + C2H3^+		! f72 * Bolsig+ C2H3 -> C2H3^+
e + C2H3 => e + e + H + C2H2^+		! f73 * Bolsig+ C2H3 -> H C2H2^+
e + C2H3 => e + e + CH + CH2^+		! f74 * Bolsig+ C2H3 -> CH CH2^+
e + C2H3 => e + e + CH2 + CH^+		! f75 * Bolsig+ C2H3 -> CH2 CH^+
e + C2H3 => e + e + C2H2 + H^+		! f76 * Bolsig+ C2H3 -> C2H2 H^+
e + C2H2 => e + e + C2H2^+		! f77 * Bolsig+ C2H2 -> C2H2^+
e + C2H2(v5) => e + e + C2H2^+		! f77 * Bolsig+ C2H2(v5) -> C2H2^+
e + C2H2(v2) => e + e + C2H2^+		! f77 * Bolsig+ C2H2(v2) -> C2H2^+
e + C2H2(v13) => e + e + C2H2^+		! f77 * Bolsig+ C2H2(v13) -> C2H2^+
e + C2H2 => e + e + CH + CH^+		! f78 * Bolsig+ C2H2 -> CH CH^+
e + C2H2(v5) => e + e + CH + CH^+		! f78 * Bolsig+ C2H2(v5) -> CH CH^+
e + C2H2(v2) => e + e + CH + CH^+		! f78 * Bolsig+ C2H2(v2) -> CH CH^+
e + C2H2(v13) => e + e + CH + CH^+		! f78 * Bolsig+ C2H2(v13) -> CH CH^+
e + C3H8 => e + C3H7 + H		! f79 * Bolsig+ C3H8 -> C3H7 H
e + C3H8(v1) => e + C3H7 + H		! f79 * Bolsig+ C3H8(v1) -> C3H7 H
e + C3H8(v2) => e + C3H7 + H		! f79 * Bolsig+ C3H8(v2) -> C3H7 H
e + C3H8 => e + C3H6 + H2		! f80 * Bolsig+ C3H8 -> C3H6 H2
e + C3H8(v1) => e + C3H6 + H2		! f80 * Bolsig+ C3H8(v1) -> C3H6 H2
e + C3H8(v2) => e + C3H6 + H2		! f80 * Bolsig+ C3H8(v2) -> C3H6 H2
e + C3H7 => e + C3H6 + H		! f81 * Bolsig+ C3H7 -> C3H6 H
e + C3H8 => e + e + C3H8^+		! f82 * Bolsig+ C3H8 -> C3H8^+
e + C3H8(v1) => e + e + C3H8^+		! f82 * Bolsig+ C3H8(v1) -> C3H8^+
e + C3H8(v2) => e + e + C3H8^+		! f82 * Bolsig+ C3H8(v2) -> C3H8^+
e + C3H8 => e + e + H + C3H7^+		! f83 * Bolsig+ C3H8 -> H C3H7^+
e + C3H8(v1) => e + e + H + C3H7^+		! f83 * Bolsig+ C3H8(v1) -> H C3H7^+
e + C3H8(v2) => e + e + H + C3H7^+		! f83 * Bolsig+ C3H8(v2) -> H C3H7^+
e + C3H8 => e + e + H2 + C3H6^+		! f84 * Bolsig+ C3H8 -> H2 C3H6^+
e + C3H8(v1) => e + e + H2 + C3H6^+		! f84 * Bolsig+ C3H8(v1) -> H2 C3H6^+
e + C3H8(v2) => e + e + H2 + C3H6^+		! f84 * Bolsig+ C3H8(v2) -> H2 C3H6^+
e + C3H7 => e + e + C3H7^+		! f85 * Bolsig+ C3H7 -> C3H7^+
e + C3H7 => e + e + H + C3H6^+		! f86 * Bolsig+ C3H7 -> H C3H6^+
e + C3H6 => e + e + C3H6^+		! f87 * Bolsig+ C3H6 -> C3H6^+
e + C3H6(v) => e + e + C3H6^+		! f87 * Bolsig+ C3H6(v) -> C3H6^+
e + C3H6 => e + C2H2 + CH4		! f88 * Bolsig+ C3H6 -> C2H2 CH4
e + C3H6(v) => e + C2H2 + CH4		! f88 * Bolsig+ C3H6(v) -> C2H2 CH4
e + C3H6 => e + e + C2H2 + CH4^+		! f89 * Bolsig+ C3H6 -> C2H2 CH4^+
e + C3H6(v) => e + e + C2H2 + CH4^+		! f89 * Bolsig+ C3H6(v) -> C2H2 CH4^+

# Ion Recombination Reaction
e + e + CH^+ => e + CH		! f90 * 1.00d0
e + e + CH2^+ => e + CH2		! f91 * 1.00d0
e + e + CH3^+ => e + CH3		! f92 * 1.00d0
e + e + CH4^+ => e + CH4		! f93 * 1.00d0
e + e + C2H2^+ => e + C2H2		! f94 * 1.00d0
e + e + C2H3^+ => e + C2H3		! f95 * 1.00d0
e + e + C2H4^+ => e + C2H4		! f96 * 1.00d0
e + e + C2H5^+ => e + C2H5		! f97 * 1.00d0
e + e + C2H6^+ => e + C2H6		! f98 * 1.00d0
e + e + C3H6^+ => e + C3H6		! f99 * 1.00d0
e + e + C3H7^+ => e + C3H7		! f100 * 1.00d0
e + e + C3H8^+ => e + C3H8		! f101 * 1.00d0

# Gas Phase Reaction
e + CH4^+ => CH3 + H		! f102 * 1.18d-08 * (300./Tgas)**0.5
e + CH4^+ => CH2 + H + H		! f103 * 2.42d-08 * (300./Tgas)**0.5
e + CH4^+ => CH + H2 + H		! f104 * 1.41d-08 * (300./Tgas)**0.5
e + CH3^+ => CH2 + H		! f105 * 2.25d-08 * (300./Tgas)**0.5
e + CH3^+ => CH + H2		! f106 * 7.88d-09 * (300./Tgas)**0.5
e + CH3^+ => CH + H + H		! f107 * 9.00d-09 * (300./Tgas)**0.5
e + CH3^+ => C + H2 + H		! f108 * 1.69d-08 * (300./Tgas)**0.5
e + CH2^+ => CH + H		! f109 * 1.00d-08 * (300./Tgas)**0.5
e + CH2^+ => C + H2		! f110 * 4.82d-09 * (300./Tgas)**0.5
e + CH2^+ => C + H + H		! f111 * 2.53d-08 * (300./Tgas)**0.5
e + CH^+ => C + H		! f112 * 3.23d-08 * (300./Tgas)**0.42
e + C2H6^+ => C2H5 + H		! f113 * 2.19d-08 * (300./Tgas)**0.71
e + C2H6^+ => C2H4 + H + H		! f114 * 3.36d-08 * (300./Tgas)**0.71
e + C2H5^+ => C2H4 + H		! f115 * 7.70d-09 * (300./Tgas)**0.71
e + C2H5^+ => C2H3 + H + H		! f116 * 1.92d-08 * (300./Tgas)**0.71
e + C2H5^+ => C2H2 + H2 + H		! f117 * 1.60d-08 * (300./Tgas)**0.71
e + C2H5^+ => C2H2 + H + H + H		! f118 * 8.98d-09 * (300./Tgas)**0.71
e + C2H5^+ => CH3 + CH2		! f119 * 9.62d-09 * (300./Tgas)**0.71
e + C2H4^+ => C2H3 + H		! f120 * 8.29d-09 * (300./Tgas)**0.71
e + C2H4^+ => C2H2 + H + H		! f121 * 3.43d-08 * (300./Tgas)**0.71
e + C2H3^+ => C2H2 + H		! f122 * 1.34d-08 * (300./Tgas)**0.71
e + C2H2^+ => CH + CH		! f123 * 4.87d-09 * (300./Tgas)**0.71
e + H2^+ => H + H		! f124 * 3.17d21/(6.022d23 * Te**4.5)
e + H3^+ => H + H2		! f125 * 3.17d21/(6.022d23 * Te**4.5)
H2 + H2^+ => H + H3^+		! f126 * 2.11d-09
C2H6 + CH4^+ => CH4 + H2 + C2H4^+		! f127 * 1.91d-9
C2H6(v24) + CH4^+ => CH4 + H2 + C2H4^+		! f127 * 1.91d-9
C2H6(v13) + CH4^+ => CH4 + H2 + C2H4^+		! f127 * 1.91d-9
C2H4 + CH4^+ => CH3 + C2H5^+		! f128 * 4.23d-10