ELEMENTS
e C H
END

SPECIES
e C CH CH^+ CH2 CH2^+ CH3 CH3^+ CH4 CH4(v13) CH4(v24) CH4^+ C2H2 C2H2(v13) C2H2(v2) C2H2(v5) C2H2^+ C2H3 C2H3^+ C2H4 C2H4(v1) C2H4(v2) C2H4^+ C2H5 C2H5^+
C2H6 C2H6(v13) C2H6(v24) C2H6^+ C3H5 C3H6 C3H6(v) C3H6^+ C3H7 C3H7^+ C3H8 C3H8(v1) C3H8(v2) C3H8^+ C4H9 C4H9H C2H C5H12 H H2 H2^+ H3^+ H^+
END

BOLSIG
CH CH2 CH3 CH4 CH4(v13) CH4(v24) C2H2 C2H2(v13) C2H2(v2) C2H2(v5) C2H3 C2H4 C2H4(v1) C2H4(v2) C2H5 C2H6 C2H6(v13) C2H6(v24) C3H6 C3H6(v) C3H7 C3H8 C3H8(v1) C3H8(v2)
END

REACTIONS
# Gas Constant
$ double precision, parameter :: R = 8.314d-3

# Compensation Parameters
$ double precision, parameter :: f0 = 5.6787d-5
$ double precision, parameter :: f1 = 4.5443d-4
$ double precision, parameter :: f2 = 6.1997d-4
$ double precision, parameter :: f3 = 1.3124d+2
$ double precision, parameter :: f4 = 8.5484d-2
$ double precision, parameter :: f5 = 2.8534d-8
$ double precision, parameter :: f6 = 1.0429d-2
$ double precision, parameter :: f7 = 1.6142d-7
$ double precision, parameter :: f8 = 9.4803d+2
$ double precision, parameter :: f9 = 1.4985d-8
$ double precision, parameter :: f10 = 9.4401d-1
$ double precision, parameter :: f11 = 1.9669d+2
$ double precision, parameter :: f12 = 3.4713d0
$ double precision, parameter :: f13 = 8.1094d+1
$ double precision, parameter :: f14 = 1.0829d0
$ double precision, parameter :: f15 = 6.5194d-1
$ double precision, parameter :: f16 = 1.1315d-6
$ double precision, parameter :: f17 = 6.5485d-1
$ double precision, parameter :: f18 = 5.4944d+1
$ double precision, parameter :: f19 = 2.9723d-8
$ double precision, parameter :: f20 = 1.7821d-5
$ double precision, parameter :: f21 = 2.6326d-8
$ double precision, parameter :: f22 = 9.3148d-7
$ double precision, parameter :: f23 = 4.8853d-5
$ double precision, parameter :: f24 = 5.3025d+2
$ double precision, parameter :: f25 = 1.5682d0
$ double precision, parameter :: f26 = 1.5666d0
$ double precision, parameter :: f27 = 3.6191d+1
$ double precision, parameter :: f28 = 3.2101d+1
$ double precision, parameter :: f29 = 1.9266d-2
$ double precision, parameter :: f30 = 2.9422d-2
$ double precision, parameter :: f31 = 4.4687d-6
$ double precision, parameter :: f32 = 2.4112d-1
$ double precision, parameter :: f33 = 4.4114d-8
$ double precision, parameter :: f34 = 1.1187d-5
$ double precision, parameter :: f35 = 1.8786d-3
$ double precision, parameter :: f36 = 1.8128d-6
$ double precision, parameter :: f37 = 1.9629d-2
$ double precision, parameter :: f38 = 1.4874d-6
$ double precision, parameter :: f39 = 4.7277d-3
$ double precision, parameter :: f40 = 2.1497d-3
$ double precision, parameter :: f41 = 2.7928d-6
$ double precision, parameter :: f42 = 1.0023d0
$ double precision, parameter :: f43 = 2.0247d-6
$ double precision, parameter :: f44 = 5.0368d0
$ double precision, parameter :: f45 = 1.4996d-4
$ double precision, parameter :: f46 = 2.6990d-1
$ double precision, parameter :: f47 = 3.7081d-3
$ double precision, parameter :: f48 = 7.2592d-8
$ double precision, parameter :: f49 = 1.5011d-1
$ double precision, parameter :: f50 = 7.6775d0
$ double precision, parameter :: f51 = 2.4736d-7
$ double precision, parameter :: f52 = 1.7506d+2
$ double precision, parameter :: f53 = 4.4189d+2
$ double precision, parameter :: f54 = 1.1021d-3
$ double precision, parameter :: f55 = 8.4414d-4
$ double precision, parameter :: f56 = 1.2787d-2
$ double precision, parameter :: f57 = 4.9069d-5
$ double precision, parameter :: f58 = 1.3461d-8
$ double precision, parameter :: f59 = 3.7426d-1
$ double precision, parameter :: f60 = 7.5313d-2
$ double precision, parameter :: f61 = 8.4620d+2
$ double precision, parameter :: f62 = 8.0025d-1
$ double precision, parameter :: f63 = 4.6208d-6
$ double precision, parameter :: f64 = 5.6120d-8
$ double precision, parameter :: f65 = 3.9256d-5
$ double precision, parameter :: f66 = 7.1829d0
$ double precision, parameter :: f67 = 1.3125d0
$ double precision, parameter :: f68 = 1.3022d-4
$ double precision, parameter :: f69 = 9.0282d+2
$ double precision, parameter :: f70 = 3.1960d+2
$ double precision, parameter :: f71 = 7.2462d-1
$ double precision, parameter :: f72 = 2.2889d+1
$ double precision, parameter :: f73 = 1.4390d-8
$ double precision, parameter :: f74 = 3.1921d-1
$ double precision, parameter :: f75 = 3.4723d+1
$ double precision, parameter :: f76 = 6.7220d-4
$ double precision, parameter :: f77 = 1.5801d-6
$ double precision, parameter :: f78 = 5.1346d-5
$ double precision, parameter :: f79 = 1.4586d-6
$ double precision, parameter :: f80 = 7.4876d-1
$ double precision, parameter :: f81 = 2.0147d+2
$ double precision, parameter :: f82 = 2.2274d-2
$ double precision, parameter :: f83 = 7.1516d+2
$ double precision, parameter :: f84 = 2.5157d-5
$ double precision, parameter :: f85 = 4.2822d-5
$ double precision, parameter :: f86 = 2.7872d0
$ double precision, parameter :: f87 = 1.4203d-4
$ double precision, parameter :: f88 = 9.7524d-2
$ double precision, parameter :: f89 = 5.0492d-6
$ double precision, parameter :: f90 = 5.5358d-8
$ double precision, parameter :: f91 = 1.0317d-5
$ double precision, parameter :: f92 = 8.7784d-3
$ double precision, parameter :: f93 = 1.3864d-5
$ double precision, parameter :: f94 = 1.7643d-6
$ double precision, parameter :: f95 = 1.1381d-8
$ double precision, parameter :: f96 = 3.0364d-7
$ double precision, parameter :: f97 = 1.9955d-8
$ double precision, parameter :: f98 = 3.0579d-8
$ double precision, parameter :: f99 = 7.1985d-6
$ double precision, parameter :: f100 = 8.8169d-8
$ double precision, parameter :: f101 = 1.3555d-8
$ double precision, parameter :: f102 = 1.5881d-3
$ double precision, parameter :: f103 = 9.0273d-4
$ double precision, parameter :: f104 = 1.6971d+1
$ double precision, parameter :: f105 = 1.1623d-5
$ double precision, parameter :: f106 = 7.9201d0
$ double precision, parameter :: f107 = 2.2320d+2
$ double precision, parameter :: f108 = 1.7599d-4
$ double precision, parameter :: f109 = 6.1950d-1
$ double precision, parameter :: f110 = 9.6701d+1
$ double precision, parameter :: f111 = 1.9819d-6
$ double precision, parameter :: f112 = 3.8337d+1
$ double precision, parameter :: f113 = 3.3787d-7
$ double precision, parameter :: f114 = 1.3611d-6
$ double precision, parameter :: f115 = 9.6555d-8
$ double precision, parameter :: f116 = 4.9304d-8
$ double precision, parameter :: f117 = 9.5953d-2
$ double precision, parameter :: f118 = 2.2490d0
$ double precision, parameter :: f119 = 6.9631d-7
$ double precision, parameter :: f120 = 7.2499d0
$ double precision, parameter :: f121 = 3.0876d-8
$ double precision, parameter :: f122 = 2.0929d-8
$ double precision, parameter :: f123 = 3.3168d-3
$ double precision, parameter :: f124 = 5.4434d-8
$ double precision, parameter :: f125 = 1.0684d-4
$ double precision, parameter :: f126 = 1.6901d-2
$ double precision, parameter :: f127 = 6.2184d-5
$ double precision, parameter :: f128 = 1.2766d0
$ double precision, parameter :: f129 = 5.2881d-2
$ double precision, parameter :: f130 = 3.5500d-8
$ double precision, parameter :: f131 = 4.0913d-6
$ double precision, parameter :: f132 = 2.8078d-7
$ double precision, parameter :: f133 = 3.7652d-7
$ double precision, parameter :: f134 = 4.0091d-3
$ double precision, parameter :: f135 = 3.7163d-6
$ double precision, parameter :: f136 = 3.0378d-4
$ double precision, parameter :: f137 = 3.1491d-4
$ double precision, parameter :: f138 = 1.7778d-6
$ double precision, parameter :: f139 = 2.1016d+1
$ double precision, parameter :: f140 = 4.9009d-4
$ double precision, parameter :: f141 = 2.7652d-1
$ double precision, parameter :: f142 = 2.1800d-2
$ double precision, parameter :: f143 = 1.4222d0
$ double precision, parameter :: f144 = 1.4219d0
$ double precision, parameter :: f145 = 8.1690d0
$ double precision, parameter :: f146 = 2.6054d-4
$ double precision, parameter :: f147 = 6.7447d-7
$ double precision, parameter :: f148 = 1.8844d-3
$ double precision, parameter :: f149 = 3.1946d-7
$ double precision, parameter :: f150 = 1.9722d-2
$ double precision, parameter :: f151 = 5.4151d-8
$ double precision, parameter :: f152 = 6.6226d-6
$ double precision, parameter :: f153 = 1.0307d-4
$ double precision, parameter :: f154 = 2.5175d-3
$ double precision, parameter :: f155 = 4.7190d+2
$ double precision, parameter :: f156 = 7.1253d-1
$ double precision, parameter :: f157 = 3.6568d-6
$ double precision, parameter :: f158 = 1.7922d-6
$ double precision, parameter :: f159 = 1.2205d-2
$ double precision, parameter :: f160 = 4.6453d+2
$ double precision, parameter :: f161 = 6.3724d-5
$ double precision, parameter :: f162 = 3.8045d+1
$ double precision, parameter :: f163 = 6.4368d-5
$ double precision, parameter :: f164 = 2.8244d-7
$ double precision, parameter :: f165 = 1.5882d-8
$ double precision, parameter :: f166 = 5.5371d-2
$ double precision, parameter :: f167 = 2.6279d-5
$ double precision, parameter :: f168 = 1.9612d-6
$ double precision, parameter :: f169 = 1.0452d-4
$ double precision, parameter :: f170 = 1.0026d0
$ double precision, parameter :: f171 = 2.7845d-8
$ double precision, parameter :: f172 = 5.0317d-7
$ double precision, parameter :: f173 = 7.0432d-1
$ double precision, parameter :: f174 = 6.0164d-8
$ double precision, parameter :: f175 = 6.4246d-8
$ double precision, parameter :: f176 = 1.0807d-7
$ double precision, parameter :: f177 = 1.1789d-7
$ double precision, parameter :: f178 = 1.2977d-2
$ double precision, parameter :: f179 = 2.1598d-1
$ double precision, parameter :: f180 = 1.5927d-3
$ double precision, parameter :: f181 = 4.3557d-4
$ double precision, parameter :: f182 = 1.4116d-6
$ double precision, parameter :: f183 = 8.3002d-1
$ double precision, parameter :: f184 = 6.9173d-6
$ double precision, parameter :: f185 = 3.6277d0
$ double precision, parameter :: f186 = 2.6782d-7
$ double precision, parameter :: f187 = 9.3817d0
$ double precision, parameter :: f188 = 2.9615d-1
$ double precision, parameter :: f189 = 5.1487d-4
$ double precision, parameter :: f190 = 5.0229d-7
$ double precision, parameter :: f191 = 4.7874d-7
$ double precision, parameter :: f192 = 3.0337d-4
$ double precision, parameter :: f193 = 1.8346d-7
$ double precision, parameter :: f194 = 2.4496d+2
$ double precision, parameter :: f195 = 1.9665d0
$ double precision, parameter :: f196 = 2.1056d-6
$ double precision, parameter :: f197 = 2.7716d-1
$ double precision, parameter :: f198 = 1.9025d-1
$ double precision, parameter :: f199 = 3.7583d-8
$ double precision, parameter :: f200 = 6.8552d-4
$ double precision, parameter :: f201 = 1.6574d+1
$ double precision, parameter :: f202 = 2.5036d0
$ double precision, parameter :: f203 = 8.1089d-8
$ double precision, parameter :: f204 = 1.2213d-6
$ double precision, parameter :: f205 = 6.9831d0
$ double precision, parameter :: f206 = 8.6727d-4
$ double precision, parameter :: f207 = 4.1010d-1
$ double precision, parameter :: f208 = 7.7083d+2
$ double precision, parameter :: f209 = 6.7446d+2
$ double precision, parameter :: f210 = 6.3748d+2
$ double precision, parameter :: f211 = 4.5628d-4
$ double precision, parameter :: f212 = 1.8472d+2
$ double precision, parameter :: f213 = 2.9787d0
$ double precision, parameter :: f214 = 4.8461d-4
$ double precision, parameter :: f215 = 6.1209d-6
$ double precision, parameter :: f216 = 2.3965d+1
$ double precision, parameter :: f217 = 1.1919d-7
$ double precision, parameter :: f218 = 1.0476d-1
$ double precision, parameter :: f219 = 1.2197d+1
$ double precision, parameter :: f220 = 1.2549d-3
$ double precision, parameter :: f221 = 7.8280d-8
$ double precision, parameter :: f222 = 1.9649d-2
$ double precision, parameter :: f223 = 1.4190d-2
$ double precision, parameter :: f224 = 4.4141d-4
$ double precision, parameter :: f225 = 1.2574d-5
$ double precision, parameter :: f226 = 1.7459d-7
$ double precision, parameter :: f227 = 1.1114d-8
$ double precision, parameter :: f228 = 6.3704d-2
$ double precision, parameter :: f229 = 3.2414d-5
$ double precision, parameter :: f230 = 9.1385d-1
$ double precision, parameter :: f231 = 3.2754d+2
$ double precision, parameter :: f232 = 1.1309d-8
$ double precision, parameter :: f233 = 6.9941d-5
$ double precision, parameter :: f234 = 2.0018d-3
$ double precision, parameter :: f235 = 1.0106d-6
$ double precision, parameter :: f236 = 5.9979d-3
$ double precision, parameter :: f237 = 3.9638d-8
$ double precision, parameter :: f238 = 6.3355d-6
$ double precision, parameter :: f239 = 3.0215d-2
$ double precision, parameter :: f240 = 5.7458d+1
$ double precision, parameter :: f241 = 1.5100d-1
$ double precision, parameter :: f242 = 7.6780d-5
$ double precision, parameter :: f243 = 2.3011d+2
$ double precision, parameter :: f244 = 2.9777d-6
$ double precision, parameter :: f245 = 2.6340d-5
$ double precision, parameter :: f246 = 8.3441d-7
$ double precision, parameter :: f247 = 7.8127d-3
$ double precision, parameter :: f248 = 2.5236d-8
$ double precision, parameter :: f249 = 1.2402d-4
$ double precision, parameter :: f250 = 1.7098d-1
$ double precision, parameter :: f251 = 3.0177d-1
$ double precision, parameter :: f252 = 1.5124d-3
$ double precision, parameter :: f253 = 2.8841d-1
$ double precision, parameter :: f254 = 5.2451d-5
$ double precision, parameter :: f255 = 4.1194d-8
$ double precision, parameter :: f256 = 1.3653d0
$ double precision, parameter :: f257 = 4.3580d+1
$ double precision, parameter :: f258 = 3.4569d-6
$ double precision, parameter :: f259 = 1.5233d+2
$ double precision, parameter :: f260 = 6.9502d-5
$ double precision, parameter :: f261 = 8.3666d-4
$ double precision, parameter :: f262 = 1.0458d-7
$ double precision, parameter :: f263 = 3.3365d-5
$ double precision, parameter :: f264 = 1.9942d-8
$ double precision, parameter :: f265 = 2.9891d0
$ double precision, parameter :: f266 = 5.5377d-4
$ double precision, parameter :: f267 = 1.8510d-3
$ double precision, parameter :: f268 = 3.1217d-2
$ double precision, parameter :: f269 = 6.0416d-7
$ double precision, parameter :: f270 = 1.7023d0
$ double precision, parameter :: f271 = 5.5569d0
$ double precision, parameter :: f272 = 1.0436d-2
$ double precision, parameter :: f273 = 2.2288d+1
$ double precision, parameter :: f274 = 6.9461d-6
$ double precision, parameter :: f275 = 1.8648d-4
$ double precision, parameter :: f276 = 5.1332d-8
$ double precision, parameter :: f277 = 3.1881d-5
$ double precision, parameter :: f278 = 6.0254d-1
$ double precision, parameter :: f279 = 4.1126d-5
$ double precision, parameter :: f280 = 4.9709d0
$ double precision, parameter :: f281 = 2.5823d-6
$ double precision, parameter :: f282 = 9.3884d-3
$ double precision, parameter :: f283 = 1.2103d+2
$ double precision, parameter :: f284 = 6.4393d+1
$ double precision, parameter :: f285 = 3.2769d-5
$ double precision, parameter :: f286 = 4.5265d-3
$ double precision, parameter :: f287 = 5.6028d0
$ double precision, parameter :: f288 = 1.4434d0
$ double precision, parameter :: f289 = 3.4508d-4
$ double precision, parameter :: f290 = 6.6026d-5
$ double precision, parameter :: f291 = 2.8841d+2
$ double precision, parameter :: f292 = 2.8658d-5
$ double precision, parameter :: f293 = 3.7278d+1
$ double precision, parameter :: f294 = 1.0082d+2
$ double precision, parameter :: f295 = 7.0621d+1
$ double precision, parameter :: f296 = 1.2094d-6
$ double precision, parameter :: f297 = 3.6369d-2
$ double precision, parameter :: f298 = 2.6838d-3
$ double precision, parameter :: f299 = 1.0393d-5
$ double precision, parameter :: f300 = 8.2672d-3
$ double precision, parameter :: f301 = 7.3257d0
$ double precision, parameter :: f302 = 1.0697d-7
$ double precision, parameter :: f303 = 8.1342d-1
$ double precision, parameter :: f304 = 1.5670d-5
$ double precision, parameter :: f305 = 5.8263d-6
$ double precision, parameter :: f306 = 1.7915d-3
$ double precision, parameter :: f307 = 2.0664d-1
$ double precision, parameter :: f308 = 1.8887d-1
$ double precision, parameter :: f309 = 6.2536d-6
$ double precision, parameter :: f310 = 4.4853d-6
$ double precision, parameter :: f311 = 2.4155d-5
$ double precision, parameter :: f312 = 2.2461d-5
$ double precision, parameter :: f313 = 3.3740d-8
$ double precision, parameter :: f314 = 5.6675d-3
$ double precision, parameter :: f315 = 2.9672d0

# Electron Collision Reaction
e + CH4 => e + CH4(v24)		! f0 * Bolsig+ CH4 -> CH4(v24)
e + CH4 => e + CH4(v13)		! f1 * Bolsig+ CH4 -> CH4(v13)
e + C2H6 => e + C2H6(v24)		! f2 * Bolsig+ C2H6 -> C2H6(v24)
e + C2H6 => e + C2H6(v13)		! f3 * Bolsig+ C2H6 -> C2H6(v13)
e + C2H4 => e + C2H4(v1)		! f4 * Bolsig+ C2H4 -> C2H4(v1)
e + C2H4 => e + C2H4(v2)		! f5 * Bolsig+ C2H4 -> C2H4(v2)
e + C2H2 => e + C2H2(v5)		! f6 * Bolsig+ C2H2 -> C2H2(v5)
e + C2H2 => e + C2H2(v2)		! f7 * Bolsig+ C2H2 -> C2H2(v2)
e + C2H2 => e + C2H2(v13)		! f8 * Bolsig+ C2H2 -> C2H2(v13)
e + C3H8 => e + C3H8(v1)		! f9 * Bolsig+ C3H8 -> C3H8(v1)
e + C3H8 => e + C3H8(v2)		! f10 * Bolsig+ C3H8 -> C3H8(v2)
e + C3H6 => e + C3H6(v)		! f11 * Bolsig+ C3H6 -> C3H6(v)
e + CH4 => e + CH3 + H		! f12 * Bolsig+ CH4 -> CH3 H
e + CH4(v24) => e + CH3 + H		! f12 * Bolsig+ CH4(v24) -> CH3 H
e + CH4(v13) => e + CH3 + H		! f12 * Bolsig+ CH4(v13) -> CH3 H
e + CH4 => e + CH2 + H2		! f13 * Bolsig+ CH4 -> CH2 H2
e + CH4(v24) => e + CH2 + H2		! f13 * Bolsig+ CH4(v24) -> CH2 H2
e + CH4(v13) => e + CH2 + H2		! f13 * Bolsig+ CH4(v13) -> CH2 H2
e + CH4 => e + CH + H2 + H		! f14 * Bolsig+ CH4 -> CH H2 H
e + CH4(v24) => e + CH + H2 + H		! f14 * Bolsig+ CH4(v24) -> CH H2 H
e + CH4(v13) => e + CH + H2 + H		! f14 * Bolsig+ CH4(v13) -> CH H2 H
e + CH4 => e + C + H2 + H2		! f15 * Bolsig+ CH4 -> C H2 H2
e + CH4(v24) => e + C + H2 + H2		! f15 * Bolsig+ CH4(v24) -> C H2 H2
e + CH4(v13) => e + C + H2 + H2		! f15 * Bolsig+ CH4(v13) -> C H2 H2
e + CH3 => e + CH2 + H		! f16 * Bolsig+ CH3 -> CH2 H
e + CH3 => e + CH + H2		! f17 * Bolsig+ CH3 -> CH H2
e + CH3 => e + C + H2 + H		! f18 * Bolsig+ CH3 -> C H2 H
e + CH2 => e + CH + H		! f19 * Bolsig+ CH2 -> CH H
e + CH2 => e + C + H2		! f20 * Bolsig+ CH2 -> C H2
e + CH2 => e + C + H + H		! f21 * Bolsig+ CH2 -> C H H
e + CH => e + C + H		! f22 * Bolsig+ CH -> C H
e + CH4 => e + e + CH4^+		! f23 * Bolsig+ CH4 -> CH4^+
e + CH4(v24) => e + e + CH4^+		! f23 * Bolsig+ CH4(v24) -> CH4^+
e + CH4(v13) => e + e + CH4^+		! f23 * Bolsig+ CH4(v13) -> CH4^+
e + CH4 => e + e + H + CH3^+		! f24 * Bolsig+ CH4 -> H CH3^+
e + CH4(v24) => e + e + H + CH3^+		! f24 * Bolsig+ CH4(v24) -> H CH3^+
e + CH4(v13) => e + e + H + CH3^+		! f24 * Bolsig+ CH4(v13) -> H CH3^+
e + CH4 => e + e + H2 + CH2^+		! f25 * Bolsig+ CH4 -> H2 CH2^+
e + CH4(v24) => e + e + H2 + CH2^+		! f25 * Bolsig+ CH4(v24) -> H2 CH2^+
e + CH4(v13) => e + e + H2 + CH2^+		! f25 * Bolsig+ CH4(v13) -> H2 CH2^+
e + CH4 => e + e + H2 + H + CH^+		! f26 * Bolsig+ CH4 -> H2 H CH^+
e + CH4(v24) => e + e + H2 + H + CH^+		! f26 * Bolsig+ CH4(v24) -> H2 H CH^+
e + CH4(v13) => e + e + H2 + H + CH^+		! f26 * Bolsig+ CH4(v13) -> H2 H CH^+
e + CH3 => e + e + CH3^+		! f27 * Bolsig+ CH3 -> CH3^+
e + CH3 => e + e + H + CH2^+		! f28 * Bolsig+ CH3 -> H CH2^+
e + CH3 => e + e + H2 + CH^+		! f29 * Bolsig+ CH3 -> H2 CH^+
e + CH2 => e + e + CH2^+		! f30 * Bolsig+ CH2 -> CH2^+
e + CH2 => e + e + H + CH^+		! f31 * Bolsig+ CH2 -> H CH^+
e + CH => e + e + CH^+		! f32 * Bolsig+ CH -> CH^+
e + C2H6 => e + C2H5 + H		! f33 * Bolsig+ C2H6 -> C2H5 H
e + C2H6(v24) => e + C2H5 + H		! f33 * Bolsig+ C2H6(v24) -> C2H5 H
e + C2H6(v13) => e + C2H5 + H		! f33 * Bolsig+ C2H6(v13) -> C2H5 H
e + C2H6 => e + C2H4 + H2		! f34 * Bolsig+ C2H6 -> C2H4 H2
e + C2H6(v24) => e + C2H4 + H2		! f34 * Bolsig+ C2H6(v24) -> C2H4 H2
e + C2H6(v13) => e + C2H4 + H2		! f34 * Bolsig+ C2H6(v13) -> C2H4 H2
e + C2H6 => e + C2H3 + H2 + H		! f35 * Bolsig+ C2H6 -> C2H3 H2 H
e + C2H6(v24) => e + C2H3 + H2 + H		! f35 * Bolsig+ C2H6(v24) -> C2H3 H2 H
e + C2H6(v13) => e + C2H3 + H2 + H		! f35 * Bolsig+ C2H6(v13) -> C2H3 H2 H
e + C2H6 => e + C2H2 + H2 + H2		! f36 * Bolsig+ C2H6 -> C2H2 H2 H2
e + C2H6(v24) => e + C2H2 + H2 + H2		! f36 * Bolsig+ C2H6(v24) -> C2H2 H2 H2
e + C2H6(v13) => e + C2H2 + H2 + H2		! f36 * Bolsig+ C2H6(v13) -> C2H2 H2 H2
e + C2H6 => e + CH4 + CH2		! f37 * Bolsig+ C2H6 -> CH4 CH2
e + C2H6(v24) => e + CH4 + CH2		! f37 * Bolsig+ C2H6(v24) -> CH4 CH2
e + C2H6(v13) => e + CH4 + CH2		! f37 * Bolsig+ C2H6(v13) -> CH4 CH2
e + C2H6 => e + CH3 + CH3		! f38 * Bolsig+ C2H6 -> CH3 CH3
e + C2H6(v24) => e + CH3 + CH3		! f38 * Bolsig+ C2H6(v24) -> CH3 CH3
e + C2H6(v13) => e + CH3 + CH3		! f38 * Bolsig+ C2H6(v13) -> CH3 CH3
e + C2H5 => e + C2H4 + H		! f39 * Bolsig+ C2H5 -> C2H4 H
e + C2H5 => e + C2H3 + H2		! f40 * Bolsig+ C2H5 -> C2H3 H2
e + C2H5 => e + C2H3 + H + H		! f41 * Bolsig+ C2H5 -> C2H3 H H
e + C2H5 => e + C2H2 + H2 + H		! f42 * Bolsig+ C2H5 -> C2H2 H2 H
e + C2H5 => e + CH4 + CH		! f43 * Bolsig+ C2H5 -> CH4 CH
e + C2H5 => e + CH3 + CH2		! f44 * Bolsig+ C2H5 -> CH3 CH2
e + C2H4 => e + C2H3 + H		! f45 * Bolsig+ C2H4 -> C2H3 H
e + C2H4(v1) => e + C2H3 + H		! f45 * Bolsig+ C2H4(v1) -> C2H3 H
e + C2H4(v2) => e + C2H3 + H		! f45 * Bolsig+ C2H4(v2) -> C2H3 H
e + C2H4 => e + C2H2 + H2		! f46 * Bolsig+ C2H4 -> C2H2 H2
e + C2H4(v1) => e + C2H2 + H2		! f46 * Bolsig+ C2H4(v1) -> C2H2 H2
e + C2H4(v2) => e + C2H2 + H2		! f46 * Bolsig+ C2H4(v2) -> C2H2 H2
e + C2H4 => e + C2H2 + H + H		! f47 * Bolsig+ C2H4 -> C2H2 H H
e + C2H4(v1) => e + C2H2 + H + H		! f47 * Bolsig+ C2H4(v1) -> C2H2 H H
e + C2H4(v2) => e + C2H2 + H + H		! f47 * Bolsig+ C2H4(v2) -> C2H2 H H
e + C2H4 => e + CH3 + CH		! f48 * Bolsig+ C2H4 -> CH3 CH
e + C2H4(v1) => e + CH3 + CH		! f48 * Bolsig+ C2H4(v1) -> CH3 CH
e + C2H4(v2) => e + CH3 + CH		! f48 * Bolsig+ C2H4(v2) -> CH3 CH
e + C2H4 => e + CH2 + CH2		! f49 * Bolsig+ C2H4 -> CH2 CH2
e + C2H4(v1) => e + CH2 + CH2		! f49 * Bolsig+ C2H4(v1) -> CH2 CH2
e + C2H4(v2) => e + CH2 + CH2		! f49 * Bolsig+ C2H4(v2) -> CH2 CH2
e + C2H3 => e + C2H2 + H		! f50 * Bolsig+ C2H3 -> C2H2 H
e + C2H3 => e + CH2 + CH		! f51 * Bolsig+ C2H3 -> CH2 CH
e + C2H2 => e + CH + CH		! f52 * Bolsig+ C2H2 -> CH CH
e + C2H2(v5) => e + CH + CH		! f52 * Bolsig+ C2H2(v5) -> CH CH
e + C2H2(v2) => e + CH + CH		! f52 * Bolsig+ C2H2(v2) -> CH CH
e + C2H2(v13) => e + CH + CH		! f52 * Bolsig+ C2H2(v13) -> CH CH
e + C2H6 => e + e + C2H6^+		! f53 * Bolsig+ C2H6 -> C2H6^+
e + C2H6(v24) => e + e + C2H6^+		! f53 * Bolsig+ C2H6(v24) -> C2H6^+
e + C2H6(v13) => e + e + C2H6^+		! f53 * Bolsig+ C2H6(v13) -> C2H6^+
e + C2H6 => e + e + H + C2H5^+		! f54 * Bolsig+ C2H6 -> H C2H5^+
e + C2H6(v24) => e + e + H + C2H5^+		! f54 * Bolsig+ C2H6(v24) -> H C2H5^+
e + C2H6(v13) => e + e + H + C2H5^+		! f54 * Bolsig+ C2H6(v13) -> H C2H5^+
e + C2H6 => e + e + H2 + C2H4^+		! f55 * Bolsig+ C2H6 -> H2 C2H4^+
e + C2H6(v24) => e + e + H2 + C2H4^+		! f55 * Bolsig+ C2H6(v24) -> H2 C2H4^+
e + C2H6(v13) => e + e + H2 + C2H4^+		! f55 * Bolsig+ C2H6(v13) -> H2 C2H4^+
e + C2H6 => e + e + H2 + H + C2H3^+		! f56 * Bolsig+ C2H6 -> H2 H C2H3^+
e + C2H6(v24) => e + e + H2 + H + C2H3^+		! f56 * Bolsig+ C2H6(v24) -> H2 H C2H3^+
e + C2H6(v13) => e + e + H2 + H + C2H3^+		! f56 * Bolsig+ C2H6(v13) -> H2 H C2H3^+
e + C2H6 => e + e + H2 + H2 + C2H2^+		! f57 * Bolsig+ C2H6 -> H2 H2 C2H2^+
e + C2H6(v24) => e + e + H2 + H2 + C2H2^+		! f57 * Bolsig+ C2H6(v24) -> H2 H2 C2H2^+
e + C2H6(v13) => e + e + H2 + H2 + C2H2^+		! f57 * Bolsig+ C2H6(v13) -> H2 H2 C2H2^+
e + C2H6 => e + e + CH3 + CH3^+		! f58 * Bolsig+ C2H6 -> CH3 CH3^+
e + C2H6(v24) => e + e + CH3 + CH3^+		! f58 * Bolsig+ C2H6(v24) -> CH3 CH3^+
e + C2H6(v13) => e + e + CH3 + CH3^+		! f58 * Bolsig+ C2H6(v13) -> CH3 CH3^+
e + C2H6 => e + e + CH4 + CH2^+		! f59 * Bolsig+ C2H6 -> CH4 CH2^+
e + C2H6(v24) => e + e + CH4 + CH2^+		! f59 * Bolsig+ C2H6(v24) -> CH4 CH2^+
e + C2H6(v13) => e + e + CH4 + CH2^+		! f59 * Bolsig+ C2H6(v13) -> CH4 CH2^+
e + C2H5 => e + e + C2H5^+		! f60 * Bolsig+ C2H5 -> C2H5^+
e + C2H5 => e + e + H + C2H4^+		! f61 * Bolsig+ C2H5 -> H C2H4^+
e + C2H5 => e + e + H2 + C2H3^+		! f62 * Bolsig+ C2H5 -> H2 C2H3^+
e + C2H5 => e + e + H2 + H + C2H2^+		! f63 * Bolsig+ C2H5 -> H2 H C2H2^+
e + C2H5 => e + e + CH2 + CH3^+		! f64 * Bolsig+ C2H5 -> CH2 CH3^+
e + C2H5 => e + e + CH3 + CH2^+		! f65 * Bolsig+ C2H5 -> CH3 CH2^+
e + C2H5 => e + e + CH4 + CH^+		! f66 * Bolsig+ C2H5 -> CH4 CH^+
e + C2H4 => e + e + C2H4^+		! f67 * Bolsig+ C2H4 -> C2H4^+
e + C2H4(v1) => e + e + C2H4^+		! f67 * Bolsig+ C2H4(v1) -> C2H4^+
e + C2H4(v2) => e + e + C2H4^+		! f67 * Bolsig+ C2H4(v2) -> C2H4^+
e + C2H4 => e + e + H + C2H3^+		! f68 * Bolsig+ C2H4 -> H C2H3^+
e + C2H4(v1) => e + e + H + C2H3^+		! f68 * Bolsig+ C2H4(v1) -> H C2H3^+
e + C2H4(v2) => e + e + H + C2H3^+		! f68 * Bolsig+ C2H4(v2) -> H C2H3^+
e + C2H4 => e + e + CH + CH3^+		! f69 * Bolsig+ C2H4 -> CH CH3^+
e + C2H4(v1) => e + e + CH + CH3^+		! f69 * Bolsig+ C2H4(v1) -> CH CH3^+
e + C2H4(v2) => e + e + CH + CH3^+		! f69 * Bolsig+ C2H4(v2) -> CH CH3^+
e + C2H4 => e + e + CH2 + CH2^+		! f70 * Bolsig+ C2H4 -> CH2 CH2^+
e + C2H4(v1) => e + e + CH2 + CH2^+		! f70 * Bolsig+ C2H4(v1) -> CH2 CH2^+
e + C2H4(v2) => e + e + CH2 + CH2^+		! f70 * Bolsig+ C2H4(v2) -> CH2 CH2^+
e + C2H4 => e + e + CH3 + CH^+		! f71 * Bolsig+ C2H4 -> CH3 CH^+
e + C2H4(v1) => e + e + CH3 + CH^+		! f71 * Bolsig+ C2H4(v1) -> CH3 CH^+
e + C2H4(v2) => e + e + CH3 + CH^+		! f71 * Bolsig+ C2H4(v2) -> CH3 CH^+
e + C2H3 => e + e + C2H3^+		! f72 * Bolsig+ C2H3 -> C2H3^+
e + C2H3 => e + e + H + C2H2^+		! f73 * Bolsig+ C2H3 -> H C2H2^+
e + C2H3 => e + e + CH + CH2^+		! f74 * Bolsig+ C2H3 -> CH CH2^+
e + C2H3 => e + e + CH2 + CH^+		! f75 * Bolsig+ C2H3 -> CH2 CH^+
e + C2H3 => e + e + C2H2 + H^+		! f76 * Bolsig+ C2H3 -> C2H2 H^+
e + C2H2 => e + e + C2H2^+		! f77 * Bolsig+ C2H2 -> C2H2^+
e + C2H2(v5) => e + e + C2H2^+		! f77 * Bolsig+ C2H2(v5) -> C2H2^+
e + C2H2(v2) => e + e + C2H2^+		! f77 * Bolsig+ C2H2(v2) -> C2H2^+
e + C2H2(v13) => e + e + C2H2^+		! f77 * Bolsig+ C2H2(v13) -> C2H2^+
e + C2H2 => e + e + CH + CH^+		! f78 * Bolsig+ C2H2 -> CH CH^+
e + C2H2(v5) => e + e + CH + CH^+		! f78 * Bolsig+ C2H2(v5) -> CH CH^+
e + C2H2(v2) => e + e + CH + CH^+		! f78 * Bolsig+ C2H2(v2) -> CH CH^+
e + C2H2(v13) => e + e + CH + CH^+		! f78 * Bolsig+ C2H2(v13) -> CH CH^+
e + C3H8 => e + C3H7 + H		! f79 * Bolsig+ C3H8 -> C3H7 H
e + C3H8(v1) => e + C3H7 + H		! f79 * Bolsig+ C3H8(v1) -> C3H7 H
e + C3H8(v2) => e + C3H7 + H		! f79 * Bolsig+ C3H8(v2) -> C3H7 H
e + C3H8 => e + C3H6 + H2		! f80 * Bolsig+ C3H8 -> C3H6 H2
e + C3H8(v1) => e + C3H6 + H2		! f80 * Bolsig+ C3H8(v1) -> C3H6 H2
e + C3H8(v2) => e + C3H6 + H2		! f80 * Bolsig+ C3H8(v2) -> C3H6 H2
e + C3H7 => e + C3H6 + H		! f81 * Bolsig+ C3H7 -> C3H6 H
e + C3H8 => e + e + C3H8^+		! f82 * Bolsig+ C3H8 -> C3H8^+
e + C3H8(v1) => e + e + C3H8^+		! f82 * Bolsig+ C3H8(v1) -> C3H8^+
e + C3H8(v2) => e + e + C3H8^+		! f82 * Bolsig+ C3H8(v2) -> C3H8^+
e + C3H8 => e + e + H + C3H7^+		! f83 * Bolsig+ C3H8 -> H C3H7^+
e + C3H8(v1) => e + e + H + C3H7^+		! f83 * Bolsig+ C3H8(v1) -> H C3H7^+
e + C3H8(v2) => e + e + H + C3H7^+		! f83 * Bolsig+ C3H8(v2) -> H C3H7^+
e + C3H8 => e + e + H2 + C3H6^+		! f84 * Bolsig+ C3H8 -> H2 C3H6^+
e + C3H8(v1) => e + e + H2 + C3H6^+		! f84 * Bolsig+ C3H8(v1) -> H2 C3H6^+
e + C3H8(v2) => e + e + H2 + C3H6^+		! f84 * Bolsig+ C3H8(v2) -> H2 C3H6^+
e + C3H7 => e + e + C3H7^+		! f85 * Bolsig+ C3H7 -> C3H7^+
e + C3H7 => e + e + H + C3H6^+		! f86 * Bolsig+ C3H7 -> H C3H6^+
e + C3H6 => e + e + C3H6^+		! f87 * Bolsig+ C3H6 -> C3H6^+
e + C3H6(v) => e + e + C3H6^+		! f87 * Bolsig+ C3H6(v) -> C3H6^+
e + C3H6 => e + C2H2 + CH4		! f88 * Bolsig+ C3H6 -> C2H2 CH4
e + C3H6(v) => e + C2H2 + CH4		! f88 * Bolsig+ C3H6(v) -> C2H2 CH4
e + C3H6 => e + e + C2H2 + CH4^+		! f89 * Bolsig+ C3H6 -> C2H2 CH4^+
e + C3H6(v) => e + e + C2H2 + CH4^+		! f89 * Bolsig+ C3H6(v) -> C2H2 CH4^+

# Ion Recombination Reaction
e + e + CH^+ => e + CH		! f90 * 1.00d0
e + e + CH2^+ => e + CH2		! f91 * 1.00d0
e + e + CH3^+ => e + CH3		! f92 * 1.00d0
e + e + CH4^+ => e + CH4		! f93 * 1.00d0
e + e + C2H2^+ => e + C2H2		! f94 * 1.00d0
e + e + C2H3^+ => e + C2H3		! f95 * 1.00d0
e + e + C2H4^+ => e + C2H4		! f96 * 1.00d0
e + e + C2H5^+ => e + C2H5		! f97 * 1.00d0
e + e + C2H6^+ => e + C2H6		! f98 * 1.00d0
e + e + C3H6^+ => e + C3H6		! f99 * 1.00d0
e + e + C3H7^+ => e + C3H7		! f100 * 1.00d0
e + e + C3H8^+ => e + C3H8		! f101 * 1.00d0

# Gas Phase Reaction
e + CH4^+ => CH3 + H		! f102 * 1.18d-08 * (300./Tgas)**0.5
e + CH4^+ => CH2 + H + H		! f103 * 2.42d-08 * (300./Tgas)**0.5
e + CH4^+ => CH + H2 + H		! f104 * 1.41d-08 * (300./Tgas)**0.5
e + CH3^+ => CH2 + H		! f105 * 2.25d-08 * (300./Tgas)**0.5
e + CH3^+ => CH + H2		! f106 * 7.88d-09 * (300./Tgas)**0.5
e + CH3^+ => CH + H + H		! f107 * 9.00d-09 * (300./Tgas)**0.5
e + CH3^+ => C + H2 + H		! f108 * 1.69d-08 * (300./Tgas)**0.5
e + CH2^+ => CH + H		! f109 * 1.00d-08 * (300./Tgas)**0.5
e + CH2^+ => C + H2		! f110 * 4.82d-09 * (300./Tgas)**0.5
e + CH2^+ => C + H + H		! f111 * 2.53d-08 * (300./Tgas)**0.5
e + CH^+ => C + H		! f112 * 3.23d-08 * (300./Tgas)**0.42
e + C2H6^+ => C2H5 + H		! f113 * 2.19d-08 * (300./Tgas)**0.71
e + C2H6^+ => C2H4 + H + H		! f114 * 3.36d-08 * (300./Tgas)**0.71
e + C2H5^+ => C2H4 + H		! f115 * 7.70d-09 * (300./Tgas)**0.71
e + C2H5^+ => C2H3 + H + H		! f116 * 1.92d-08 * (300./Tgas)**0.71
e + C2H5^+ => C2H2 + H2 + H		! f117 * 1.60d-08 * (300./Tgas)**0.71
e + C2H5^+ => C2H2 + H + H + H		! f118 * 8.98d-09 * (300./Tgas)**0.71
e + C2H5^+ => CH3 + CH2		! f119 * 9.62d-09 * (300./Tgas)**0.71
e + C2H4^+ => C2H3 + H		! f120 * 8.29d-09 * (300./Tgas)**0.71
e + C2H4^+ => C2H2 + H + H		! f121 * 3.43d-08 * (300./Tgas)**0.71
e + C2H3^+ => C2H2 + H		! f122 * 1.34d-08 * (300./Tgas)**0.71
e + C2H2^+ => CH + CH		! f123 * 4.87d-09 * (300./Tgas)**0.71
e + H2^+ => H + H		! f124 * 3.17d21/(6.022d23 * Te**4.5)
e + H3^+ => H + H2		! f125 * 3.17d21/(6.022d23 * Te**4.5)
H2 + H2^+ => H + H3^+		! f126 * 2.11d-09
C2H6 + CH4^+ => CH4 + H2 + C2H4^+		! f127 * 1.91d-9
C2H6(v24) + CH4^+ => CH4 + H2 + C2H4^+		! f127 * 1.91d-9
C2H6(v13) + CH4^+ => CH4 + H2 + C2H4^+		! f127 * 1.91d-9
C2H4 + CH4^+ => CH3 + C2H5^+		! f128 * 4.23d-10