ELEMENTS
e C H
END

SPECIES
e C CH CH^+ CH2 CH2^+ CH3 CH3^+ CH4 CH4(v13) CH4(v24) CH4^+ C2H2 C2H2(v13) C2H2(v2) C2H2(v5) C2H2^+ C2H3 C2H3^+ C2H4 C2H4(v1) C2H4(v2) C2H4^+ C2H5 C2H5^+
C2H6 C2H6(v13) C2H6(v24) C2H6^+ C3H5 C3H6 C3H6(v) C3H6^+ C3H7 C3H7^+ C3H8 C3H8(v1) C3H8(v2) C3H8^+ C4H9 C4H9H C2H C5H12 H H2 H2^+ H3^+ H^+
END

BOLSIG
CH CH2 CH3 CH4 CH4(v13) CH4(v24) C2H2 C2H2(v13) C2H2(v2) C2H2(v5) C2H3 C2H4 C2H4(v1) C2H4(v2) C2H5 C2H6 C2H6(v13) C2H6(v24) C3H6 C3H6(v) C3H7 C3H8 C3H8(v1) C3H8(v2)
END

REACTIONS
# Gas Constant
$ double precision, parameter :: R = 8.314d-3

# Compensation Parameters
$ double precision, parameter :: f0 = 9.1972d-1
$ double precision, parameter :: f1 = 4.0732d-7
$ double precision, parameter :: f2 = 3.1362d-7
$ double precision, parameter :: f3 = 2.4065d-2
$ double precision, parameter :: f4 = 1.5515d-6
$ double precision, parameter :: f5 = 2.2444d-7
$ double precision, parameter :: f6 = 1.1220d-2
$ double precision, parameter :: f7 = 5.6273d-2
$ double precision, parameter :: f8 = 2.9346d-2
$ double precision, parameter :: f9 = 1.7633d-3
$ double precision, parameter :: f10 = 6.6791d-4
$ double precision, parameter :: f11 = 2.2622d-6
$ double precision, parameter :: f12 = 4.6723d-2
$ double precision, parameter :: f13 = 1.1903d-2
$ double precision, parameter :: f14 = 9.7908d+2
$ double precision, parameter :: f15 = 4.4603d-7
$ double precision, parameter :: f16 = 1.1093d0
$ double precision, parameter :: f17 = 2.4884d-3
$ double precision, parameter :: f18 = 5.2877d-2
$ double precision, parameter :: f19 = 6.9091d0
$ double precision, parameter :: f20 = 1.4573d-2
$ double precision, parameter :: f21 = 4.3286d0
$ double precision, parameter :: f22 = 7.0659d-2
$ double precision, parameter :: f23 = 2.0119d+2
$ double precision, parameter :: f24 = 1.4264d+1
$ double precision, parameter :: f25 = 9.2624d-8
$ double precision, parameter :: f26 = 8.5069d-1
$ double precision, parameter :: f27 = 1.7504d-4
$ double precision, parameter :: f28 = 1.3703d+1
$ double precision, parameter :: f29 = 5.6875d-3
$ double precision, parameter :: f30 = 4.3782d-4
$ double precision, parameter :: f31 = 6.1825d+1
$ double precision, parameter :: f32 = 6.3393d0
$ double precision, parameter :: f33 = 5.1828d-3
$ double precision, parameter :: f34 = 5.8082d-2
$ double precision, parameter :: f35 = 6.3967d-3
$ double precision, parameter :: f36 = 2.0042d-6
$ double precision, parameter :: f37 = 6.5309d-5
$ double precision, parameter :: f38 = 1.2432d0
$ double precision, parameter :: f39 = 6.1805d0
$ double precision, parameter :: f40 = 1.6033d+2
$ double precision, parameter :: f41 = 3.1317d-8
$ double precision, parameter :: f42 = 6.1985d-1
$ double precision, parameter :: f43 = 1.3119d-3
$ double precision, parameter :: f44 = 1.4363d-3
$ double precision, parameter :: f45 = 1.3558d+2
$ double precision, parameter :: f46 = 2.5724d-1
$ double precision, parameter :: f47 = 3.5184d-5
$ double precision, parameter :: f48 = 7.3999d0
$ double precision, parameter :: f49 = 1.5366d-4
$ double precision, parameter :: f50 = 6.2385d-2
$ double precision, parameter :: f51 = 4.3674d+1
$ double precision, parameter :: f52 = 1.3845d-1
$ double precision, parameter :: f53 = 4.5182d-1
$ double precision, parameter :: f54 = 3.3331d-7
$ double precision, parameter :: f55 = 1.7910d0
$ double precision, parameter :: f56 = 3.6849d-7
$ double precision, parameter :: f57 = 3.3188d+1
$ double precision, parameter :: f58 = 1.9093d-7
$ double precision, parameter :: f59 = 1.3490d-5
$ double precision, parameter :: f60 = 1.6286d-5
$ double precision, parameter :: f61 = 6.3548d+1
$ double precision, parameter :: f62 = 2.5118d+2
$ double precision, parameter :: f63 = 1.3506d-1
$ double precision, parameter :: f64 = 2.1574d-2
$ double precision, parameter :: f65 = 8.4996d+1
$ double precision, parameter :: f66 = 1.9900d-2
$ double precision, parameter :: f67 = 1.6214d-8
$ double precision, parameter :: f68 = 1.5580d-2
$ double precision, parameter :: f69 = 7.2940d0
$ double precision, parameter :: f70 = 1.7835d-7
$ double precision, parameter :: f71 = 8.3203d-4
$ double precision, parameter :: f72 = 8.3051d+1
$ double precision, parameter :: f73 = 9.8416d-3
$ double precision, parameter :: f74 = 1.0217d+1
$ double precision, parameter :: f75 = 1.3247d0
$ double precision, parameter :: f76 = 5.6997d+1
$ double precision, parameter :: f77 = 1.0788d0
$ double precision, parameter :: f78 = 2.0773d-4
$ double precision, parameter :: f79 = 2.1740d-4
$ double precision, parameter :: f80 = 2.9708d-6
$ double precision, parameter :: f81 = 1.3907d-4
$ double precision, parameter :: f82 = 1.3135d-5
$ double precision, parameter :: f83 = 1.2372d-4
$ double precision, parameter :: f84 = 7.1644d-6
$ double precision, parameter :: f85 = 7.0218d+2
$ double precision, parameter :: f86 = 5.0099d+1
$ double precision, parameter :: f87 = 3.4800d-3
$ double precision, parameter :: f88 = 6.7930d-2
$ double precision, parameter :: f89 = 8.0877d-7
$ double precision, parameter :: f90 = 2.5920d-3
$ double precision, parameter :: f91 = 8.6645d-8
$ double precision, parameter :: f92 = 1.8134d-5
$ double precision, parameter :: f93 = 9.2811d-7
$ double precision, parameter :: f94 = 4.6743d-1
$ double precision, parameter :: f95 = 7.7841d+2
$ double precision, parameter :: f96 = 1.6734d+2
$ double precision, parameter :: f97 = 4.9706d-5
$ double precision, parameter :: f98 = 2.2405d-7
$ double precision, parameter :: f99 = 8.0289d-7
$ double precision, parameter :: f100 = 5.0358d0
$ double precision, parameter :: f101 = 4.7968d0
$ double precision, parameter :: f102 = 1.0689d+2
$ double precision, parameter :: f103 = 1.2073d-4
$ double precision, parameter :: f104 = 3.3769d+1
$ double precision, parameter :: f105 = 2.1416d-6
$ double precision, parameter :: f106 = 4.2806d-3
$ double precision, parameter :: f107 = 2.1660d-7
$ double precision, parameter :: f108 = 5.3533d-6
$ double precision, parameter :: f109 = 3.0207d-5
$ double precision, parameter :: f110 = 1.4821d-7
$ double precision, parameter :: f111 = 2.5717d-8
$ double precision, parameter :: f112 = 1.4302d-6
$ double precision, parameter :: f113 = 7.8762d+2
$ double precision, parameter :: f114 = 1.3369d-2
$ double precision, parameter :: f115 = 2.3400d-4
$ double precision, parameter :: f116 = 3.7682d0
$ double precision, parameter :: f117 = 7.3831d-4
$ double precision, parameter :: f118 = 1.9570d-3
$ double precision, parameter :: f119 = 3.4530d+1
$ double precision, parameter :: f120 = 1.4768d-5
$ double precision, parameter :: f121 = 5.5255d-6
$ double precision, parameter :: f122 = 3.5904d-8
$ double precision, parameter :: f123 = 1.1931d-2
$ double precision, parameter :: f124 = 7.2823d-7
$ double precision, parameter :: f125 = 1.6793d-7
$ double precision, parameter :: f126 = 2.2793d0
$ double precision, parameter :: f127 = 5.4558d-7
$ double precision, parameter :: f128 = 1.1418d-7
$ double precision, parameter :: f129 = 8.8573d-7
$ double precision, parameter :: f130 = 1.9460d-8
$ double precision, parameter :: f131 = 1.9654d-4
$ double precision, parameter :: f132 = 9.1454d+1
$ double precision, parameter :: f133 = 3.1595d-3
$ double precision, parameter :: f134 = 3.4358d-3
$ double precision, parameter :: f135 = 1.7049d-6
$ double precision, parameter :: f136 = 4.2314d-3
$ double precision, parameter :: f137 = 8.8088d-6
$ double precision, parameter :: f138 = 3.6079d-2
$ double precision, parameter :: f139 = 1.2032d-3
$ double precision, parameter :: f140 = 1.8546d-7
$ double precision, parameter :: f141 = 2.2836d-7
$ double precision, parameter :: f142 = 6.2357d-8
$ double precision, parameter :: f143 = 2.0397d-3
$ double precision, parameter :: f144 = 9.0021d-1
$ double precision, parameter :: f145 = 9.4414d-5
$ double precision, parameter :: f146 = 1.2342d+2
$ double precision, parameter :: f147 = 1.1867d+1
$ double precision, parameter :: f148 = 9.2931d-4
$ double precision, parameter :: f149 = 7.8197d+1
$ double precision, parameter :: f150 = 1.1494d-4
$ double precision, parameter :: f151 = 8.3730d-4
$ double precision, parameter :: f152 = 1.0083d-6
$ double precision, parameter :: f153 = 4.0982d-4
$ double precision, parameter :: f154 = 1.7948d-6
$ double precision, parameter :: f155 = 3.7230d-7
$ double precision, parameter :: f156 = 1.5780d-4
$ double precision, parameter :: f157 = 2.0426d-6
$ double precision, parameter :: f158 = 5.4051d-1
$ double precision, parameter :: f159 = 8.0800d-8
$ double precision, parameter :: f160 = 2.7918d-2
$ double precision, parameter :: f161 = 2.1227d-7
$ double precision, parameter :: f162 = 6.4242d+1
$ double precision, parameter :: f163 = 1.0686d-8
$ double precision, parameter :: f164 = 2.8021d0
$ double precision, parameter :: f165 = 8.5087d-8
$ double precision, parameter :: f166 = 2.0471d-5
$ double precision, parameter :: f167 = 2.2946d+1
$ double precision, parameter :: f168 = 7.7288d+2
$ double precision, parameter :: f169 = 3.5800d-4
$ double precision, parameter :: f170 = 9.7518d-7
$ double precision, parameter :: f171 = 3.3647d+1
$ double precision, parameter :: f172 = 2.7283d-3
$ double precision, parameter :: f173 = 2.8021d-4
$ double precision, parameter :: f174 = 3.5005d+2
$ double precision, parameter :: f175 = 6.4957d-3
$ double precision, parameter :: f176 = 8.4692d+1
$ double precision, parameter :: f177 = 2.4097d-5
$ double precision, parameter :: f178 = 1.4804d0
$ double precision, parameter :: f179 = 7.6592d-6
$ double precision, parameter :: f180 = 5.8292d-6
$ double precision, parameter :: f181 = 2.0068d+2
$ double precision, parameter :: f182 = 2.3641d-1
$ double precision, parameter :: f183 = 4.6004d-4
$ double precision, parameter :: f184 = 1.4055d-1
$ double precision, parameter :: f185 = 2.2428d0
$ double precision, parameter :: f186 = 3.0974d-2
$ double precision, parameter :: f187 = 1.8981d-6
$ double precision, parameter :: f188 = 3.4589d-6
$ double precision, parameter :: f189 = 3.3469d+2
$ double precision, parameter :: f190 = 1.4618d-7
$ double precision, parameter :: f191 = 3.7746d-4
$ double precision, parameter :: f192 = 2.6847d-3
$ double precision, parameter :: f193 = 1.9791d-4
$ double precision, parameter :: f194 = 2.8537d-2
$ double precision, parameter :: f195 = 1.9384d-5
$ double precision, parameter :: f196 = 1.3667d-6
$ double precision, parameter :: f197 = 1.0226d-6
$ double precision, parameter :: f198 = 2.2298d-4
$ double precision, parameter :: f199 = 4.0346d0
$ double precision, parameter :: f200 = 4.9982d-6
$ double precision, parameter :: f201 = 9.6047d-8
$ double precision, parameter :: f202 = 3.6070d-4
$ double precision, parameter :: f203 = 2.5216d-1
$ double precision, parameter :: f204 = 1.8459d-1
$ double precision, parameter :: f205 = 1.7080d-7
$ double precision, parameter :: f206 = 6.6130d-6
$ double precision, parameter :: f207 = 2.8218d-4
$ double precision, parameter :: f208 = 4.3592d-8
$ double precision, parameter :: f209 = 3.1530d-3
$ double precision, parameter :: f210 = 6.9880d+2
$ double precision, parameter :: f211 = 4.3772d-5
$ double precision, parameter :: f212 = 3.5782d-6
$ double precision, parameter :: f213 = 6.2737d-6
$ double precision, parameter :: f214 = 5.0604d+2
$ double precision, parameter :: f215 = 1.2717d-4
$ double precision, parameter :: f216 = 5.1763d-3
$ double precision, parameter :: f217 = 1.3925d+1
$ double precision, parameter :: f218 = 5.8481d-2
$ double precision, parameter :: f219 = 8.8423d-8
$ double precision, parameter :: f220 = 1.2094d+1
$ double precision, parameter :: f221 = 1.3048d-8
$ double precision, parameter :: f222 = 9.3500d-5
$ double precision, parameter :: f223 = 1.4449d0
$ double precision, parameter :: f224 = 8.8015d+1
$ double precision, parameter :: f225 = 3.2895d+2
$ double precision, parameter :: f226 = 9.0623d-6
$ double precision, parameter :: f227 = 4.0527d-7
$ double precision, parameter :: f228 = 8.9269d-5
$ double precision, parameter :: f229 = 3.4990d-7
$ double precision, parameter :: f230 = 2.5187d-3
$ double precision, parameter :: f231 = 2.7086d-4
$ double precision, parameter :: f232 = 3.2147d-5
$ double precision, parameter :: f233 = 3.4731d-2
$ double precision, parameter :: f234 = 9.8398d0
$ double precision, parameter :: f235 = 1.7018d0
$ double precision, parameter :: f236 = 1.4118d-2
$ double precision, parameter :: f237 = 4.4726d-5
$ double precision, parameter :: f238 = 1.6781d-5
$ double precision, parameter :: f239 = 7.6865d+1
$ double precision, parameter :: f240 = 3.6943d-3
$ double precision, parameter :: f241 = 2.4051d-5
$ double precision, parameter :: f242 = 3.9092d-6
$ double precision, parameter :: f243 = 2.5674d-8
$ double precision, parameter :: f244 = 2.6527d-1
$ double precision, parameter :: f245 = 6.9651d-7
$ double precision, parameter :: f246 = 3.0452d0
$ double precision, parameter :: f247 = 5.1284d-2
$ double precision, parameter :: f248 = 3.9444d-4
$ double precision, parameter :: f249 = 9.3711d0
$ double precision, parameter :: f250 = 3.0382d-4
$ double precision, parameter :: f251 = 2.9361d-4
$ double precision, parameter :: f252 = 1.9030d-7
$ double precision, parameter :: f253 = 2.6577d-2
$ double precision, parameter :: f254 = 1.9123d-6
$ double precision, parameter :: f255 = 1.1586d0
$ double precision, parameter :: f256 = 1.1714d-8
$ double precision, parameter :: f257 = 1.2478d-5
$ double precision, parameter :: f258 = 1.8167d-8
$ double precision, parameter :: f259 = 8.4772d+1
$ double precision, parameter :: f260 = 1.5906d-1
$ double precision, parameter :: f261 = 2.0104d-3
$ double precision, parameter :: f262 = 2.3348d-5
$ double precision, parameter :: f263 = 8.4732d-5
$ double precision, parameter :: f264 = 6.5423d-7
$ double precision, parameter :: f265 = 5.0527d-2
$ double precision, parameter :: f266 = 1.1974d+2
$ double precision, parameter :: f267 = 6.3856d-1
$ double precision, parameter :: f268 = 2.7187d+1
$ double precision, parameter :: f269 = 1.2519d+2
$ double precision, parameter :: f270 = 1.1114d+2
$ double precision, parameter :: f271 = 2.0604d-3
$ double precision, parameter :: f272 = 1.0293d-1
$ double precision, parameter :: f273 = 7.1239d0
$ double precision, parameter :: f274 = 1.3035d-3
$ double precision, parameter :: f275 = 3.4317d-8
$ double precision, parameter :: f276 = 1.8133d-6
$ double precision, parameter :: f277 = 6.2397d-5
$ double precision, parameter :: f278 = 1.9157d-8
$ double precision, parameter :: f279 = 4.4754d+1
$ double precision, parameter :: f280 = 7.8292d0
$ double precision, parameter :: f281 = 6.7875d-1
$ double precision, parameter :: f282 = 4.7539d-7
$ double precision, parameter :: f283 = 7.5049d-6
$ double precision, parameter :: f284 = 1.2412d+2
$ double precision, parameter :: f285 = 1.2227d-6
$ double precision, parameter :: f286 = 2.3109d-7
$ double precision, parameter :: f287 = 4.8780d+1
$ double precision, parameter :: f288 = 6.0135d+1
$ double precision, parameter :: f289 = 1.9610d-4
$ double precision, parameter :: f290 = 9.0936d+1
$ double precision, parameter :: f291 = 3.5598d-5
$ double precision, parameter :: f292 = 1.6026d-7
$ double precision, parameter :: f293 = 2.4045d-2
$ double precision, parameter :: f294 = 5.7048d-1
$ double precision, parameter :: f295 = 1.4035d+1
$ double precision, parameter :: f296 = 2.8080d+1
$ double precision, parameter :: f297 = 1.8190d0
$ double precision, parameter :: f298 = 3.0942d-4
$ double precision, parameter :: f299 = 2.6079d-6
$ double precision, parameter :: f300 = 6.8293d-4
$ double precision, parameter :: f301 = 1.0454d-5
$ double precision, parameter :: f302 = 2.5921d-8
$ double precision, parameter :: f303 = 5.7009d-8
$ double precision, parameter :: f304 = 1.7451d-5
$ double precision, parameter :: f305 = 4.3634d-4
$ double precision, parameter :: f306 = 2.5840d-4
$ double precision, parameter :: f307 = 2.0473d+1
$ double precision, parameter :: f308 = 8.0823d-3
$ double precision, parameter :: f309 = 1.7127d0
$ double precision, parameter :: f310 = 2.5705d-6
$ double precision, parameter :: f311 = 5.5451d-7
$ double precision, parameter :: f312 = 1.1959d+2
$ double precision, parameter :: f313 = 9.1779d0
$ double precision, parameter :: f314 = 2.4182d0
$ double precision, parameter :: f315 = 4.3614d-1

# Electron Collision Reaction
e + CH4 => e + CH4(v24)		! f0 * Bolsig+ CH4 -> CH4(v24)
e + CH4 => e + CH4(v13)		! f1 * Bolsig+ CH4 -> CH4(v13)
e + C2H6 => e + C2H6(v24)		! f2 * Bolsig+ C2H6 -> C2H6(v24)
e + C2H6 => e + C2H6(v13)		! f3 * Bolsig+ C2H6 -> C2H6(v13)
e + C2H4 => e + C2H4(v1)		! f4 * Bolsig+ C2H4 -> C2H4(v1)
e + C2H4 => e + C2H4(v2)		! f5 * Bolsig+ C2H4 -> C2H4(v2)
e + C2H2 => e + C2H2(v5)		! f6 * Bolsig+ C2H2 -> C2H2(v5)
e + C2H2 => e + C2H2(v2)		! f7 * Bolsig+ C2H2 -> C2H2(v2)
e + C2H2 => e + C2H2(v13)		! f8 * Bolsig+ C2H2 -> C2H2(v13)
e + C3H8 => e + C3H8(v1)		! f9 * Bolsig+ C3H8 -> C3H8(v1)
e + C3H8 => e + C3H8(v2)		! f10 * Bolsig+ C3H8 -> C3H8(v2)
e + C3H6 => e + C3H6(v)		! f11 * Bolsig+ C3H6 -> C3H6(v)
e + CH4 => e + CH3 + H		! f12 * Bolsig+ CH4 -> CH3 H
e + CH4(v24) => e + CH3 + H		! f12 * Bolsig+ CH4(v24) -> CH3 H
e + CH4(v13) => e + CH3 + H		! f12 * Bolsig+ CH4(v13) -> CH3 H
e + CH4 => e + CH2 + H2		! f13 * Bolsig+ CH4 -> CH2 H2
e + CH4(v24) => e + CH2 + H2		! f13 * Bolsig+ CH4(v24) -> CH2 H2
e + CH4(v13) => e + CH2 + H2		! f13 * Bolsig+ CH4(v13) -> CH2 H2
e + CH4 => e + CH + H2 + H		! f14 * Bolsig+ CH4 -> CH H2 H
e + CH4(v24) => e + CH + H2 + H		! f14 * Bolsig+ CH4(v24) -> CH H2 H
e + CH4(v13) => e + CH + H2 + H		! f14 * Bolsig+ CH4(v13) -> CH H2 H
e + CH4 => e + C + H2 + H2		! f15 * Bolsig+ CH4 -> C H2 H2
e + CH4(v24) => e + C + H2 + H2		! f15 * Bolsig+ CH4(v24) -> C H2 H2
e + CH4(v13) => e + C + H2 + H2		! f15 * Bolsig+ CH4(v13) -> C H2 H2
e + CH3 => e + CH2 + H		! f16 * Bolsig+ CH3 -> CH2 H
e + CH3 => e + CH + H2		! f17 * Bolsig+ CH3 -> CH H2
e + CH3 => e + C + H2 + H		! f18 * Bolsig+ CH3 -> C H2 H
e + CH2 => e + CH + H		! f19 * Bolsig+ CH2 -> CH H
e + CH2 => e + C + H2		! f20 * Bolsig+ CH2 -> C H2
e + CH2 => e + C + H + H		! f21 * Bolsig+ CH2 -> C H H
e + CH => e + C + H		! f22 * Bolsig+ CH -> C H
e + CH4 => e + e + CH4^+		! f23 * Bolsig+ CH4 -> CH4^+
e + CH4(v24) => e + e + CH4^+		! f23 * Bolsig+ CH4(v24) -> CH4^+
e + CH4(v13) => e + e + CH4^+		! f23 * Bolsig+ CH4(v13) -> CH4^+
e + CH4 => e + e + H + CH3^+		! f24 * Bolsig+ CH4 -> H CH3^+
e + CH4(v24) => e + e + H + CH3^+		! f24 * Bolsig+ CH4(v24) -> H CH3^+
e + CH4(v13) => e + e + H + CH3^+		! f24 * Bolsig+ CH4(v13) -> H CH3^+
e + CH4 => e + e + H2 + CH2^+		! f25 * Bolsig+ CH4 -> H2 CH2^+
e + CH4(v24) => e + e + H2 + CH2^+		! f25 * Bolsig+ CH4(v24) -> H2 CH2^+
e + CH4(v13) => e + e + H2 + CH2^+		! f25 * Bolsig+ CH4(v13) -> H2 CH2^+
e + CH4 => e + e + H2 + H + CH^+		! f26 * Bolsig+ CH4 -> H2 H CH^+
e + CH4(v24) => e + e + H2 + H + CH^+		! f26 * Bolsig+ CH4(v24) -> H2 H CH^+
e + CH4(v13) => e + e + H2 + H + CH^+		! f26 * Bolsig+ CH4(v13) -> H2 H CH^+
e + CH3 => e + e + CH3^+		! f27 * Bolsig+ CH3 -> CH3^+
e + CH3 => e + e + H + CH2^+		! f28 * Bolsig+ CH3 -> H CH2^+
e + CH3 => e + e + H2 + CH^+		! f29 * Bolsig+ CH3 -> H2 CH^+
e + CH2 => e + e + CH2^+		! f30 * Bolsig+ CH2 -> CH2^+
e + CH2 => e + e + H + CH^+		! f31 * Bolsig+ CH2 -> H CH^+
e + CH => e + e + CH^+		! f32 * Bolsig+ CH -> CH^+
e + C2H6 => e + C2H5 + H		! f33 * Bolsig+ C2H6 -> C2H5 H
e + C2H6(v24) => e + C2H5 + H		! f33 * Bolsig+ C2H6(v24) -> C2H5 H
e + C2H6(v13) => e + C2H5 + H		! f33 * Bolsig+ C2H6(v13) -> C2H5 H
e + C2H6 => e + C2H4 + H2		! f34 * Bolsig+ C2H6 -> C2H4 H2
e + C2H6(v24) => e + C2H4 + H2		! f34 * Bolsig+ C2H6(v24) -> C2H4 H2
e + C2H6(v13) => e + C2H4 + H2		! f34 * Bolsig+ C2H6(v13) -> C2H4 H2
e + C2H6 => e + C2H3 + H2 + H		! f35 * Bolsig+ C2H6 -> C2H3 H2 H
e + C2H6(v24) => e + C2H3 + H2 + H		! f35 * Bolsig+ C2H6(v24) -> C2H3 H2 H
e + C2H6(v13) => e + C2H3 + H2 + H		! f35 * Bolsig+ C2H6(v13) -> C2H3 H2 H
e + C2H6 => e + C2H2 + H2 + H2		! f36 * Bolsig+ C2H6 -> C2H2 H2 H2
e + C2H6(v24) => e + C2H2 + H2 + H2		! f36 * Bolsig+ C2H6(v24) -> C2H2 H2 H2
e + C2H6(v13) => e + C2H2 + H2 + H2		! f36 * Bolsig+ C2H6(v13) -> C2H2 H2 H2
e + C2H6 => e + CH4 + CH2		! f37 * Bolsig+ C2H6 -> CH4 CH2
e + C2H6(v24) => e + CH4 + CH2		! f37 * Bolsig+ C2H6(v24) -> CH4 CH2
e + C2H6(v13) => e + CH4 + CH2		! f37 * Bolsig+ C2H6(v13) -> CH4 CH2
e + C2H6 => e + CH3 + CH3		! f38 * Bolsig+ C2H6 -> CH3 CH3
e + C2H6(v24) => e + CH3 + CH3		! f38 * Bolsig+ C2H6(v24) -> CH3 CH3
e + C2H6(v13) => e + CH3 + CH3		! f38 * Bolsig+ C2H6(v13) -> CH3 CH3
e + C2H5 => e + C2H4 + H		! f39 * Bolsig+ C2H5 -> C2H4 H
e + C2H5 => e + C2H3 + H2		! f40 * Bolsig+ C2H5 -> C2H3 H2
e + C2H5 => e + C2H3 + H + H		! f41 * Bolsig+ C2H5 -> C2H3 H H
e + C2H5 => e + C2H2 + H2 + H		! f42 * Bolsig+ C2H5 -> C2H2 H2 H
e + C2H5 => e + CH4 + CH		! f43 * Bolsig+ C2H5 -> CH4 CH
e + C2H5 => e + CH3 + CH2		! f44 * Bolsig+ C2H5 -> CH3 CH2
e + C2H4 => e + C2H3 + H		! f45 * Bolsig+ C2H4 -> C2H3 H
e + C2H4(v1) => e + C2H3 + H		! f45 * Bolsig+ C2H4(v1) -> C2H3 H
e + C2H4(v2) => e + C2H3 + H		! f45 * Bolsig+ C2H4(v2) -> C2H3 H
e + C2H4 => e + C2H2 + H2		! f46 * Bolsig+ C2H4 -> C2H2 H2
e + C2H4(v1) => e + C2H2 + H2		! f46 * Bolsig+ C2H4(v1) -> C2H2 H2
e + C2H4(v2) => e + C2H2 + H2		! f46 * Bolsig+ C2H4(v2) -> C2H2 H2
e + C2H4 => e + C2H2 + H + H		! f47 * Bolsig+ C2H4 -> C2H2 H H
e + C2H4(v1) => e + C2H2 + H + H		! f47 * Bolsig+ C2H4(v1) -> C2H2 H H
e + C2H4(v2) => e + C2H2 + H + H		! f47 * Bolsig+ C2H4(v2) -> C2H2 H H
e + C2H4 => e + CH3 + CH		! f48 * Bolsig+ C2H4 -> CH3 CH
e + C2H4(v1) => e + CH3 + CH		! f48 * Bolsig+ C2H4(v1) -> CH3 CH
e + C2H4(v2) => e + CH3 + CH		! f48 * Bolsig+ C2H4(v2) -> CH3 CH
e + C2H4 => e + CH2 + CH2		! f49 * Bolsig+ C2H4 -> CH2 CH2
e + C2H4(v1) => e + CH2 + CH2		! f49 * Bolsig+ C2H4(v1) -> CH2 CH2
e + C2H4(v2) => e + CH2 + CH2		! f49 * Bolsig+ C2H4(v2) -> CH2 CH2
e + C2H3 => e + C2H2 + H		! f50 * Bolsig+ C2H3 -> C2H2 H
e + C2H3 => e + CH2 + CH		! f51 * Bolsig+ C2H3 -> CH2 CH
e + C2H2 => e + CH + CH		! f52 * Bolsig+ C2H2 -> CH CH
e + C2H2(v5) => e + CH + CH		! f52 * Bolsig+ C2H2(v5) -> CH CH
e + C2H2(v2) => e + CH + CH		! f52 * Bolsig+ C2H2(v2) -> CH CH
e + C2H2(v13) => e + CH + CH		! f52 * Bolsig+ C2H2(v13) -> CH CH
e + C2H6 => e + e + C2H6^+		! f53 * Bolsig+ C2H6 -> C2H6^+
e + C2H6(v24) => e + e + C2H6^+		! f53 * Bolsig+ C2H6(v24) -> C2H6^+
e + C2H6(v13) => e + e + C2H6^+		! f53 * Bolsig+ C2H6(v13) -> C2H6^+
e + C2H6 => e + e + H + C2H5^+		! f54 * Bolsig+ C2H6 -> H C2H5^+
e + C2H6(v24) => e + e + H + C2H5^+		! f54 * Bolsig+ C2H6(v24) -> H C2H5^+
e + C2H6(v13) => e + e + H + C2H5^+		! f54 * Bolsig+ C2H6(v13) -> H C2H5^+
e + C2H6 => e + e + H2 + C2H4^+		! f55 * Bolsig+ C2H6 -> H2 C2H4^+
e + C2H6(v24) => e + e + H2 + C2H4^+		! f55 * Bolsig+ C2H6(v24) -> H2 C2H4^+
e + C2H6(v13) => e + e + H2 + C2H4^+		! f55 * Bolsig+ C2H6(v13) -> H2 C2H4^+
e + C2H6 => e + e + H2 + H + C2H3^+		! f56 * Bolsig+ C2H6 -> H2 H C2H3^+
e + C2H6(v24) => e + e + H2 + H + C2H3^+		! f56 * Bolsig+ C2H6(v24) -> H2 H C2H3^+
e + C2H6(v13) => e + e + H2 + H + C2H3^+		! f56 * Bolsig+ C2H6(v13) -> H2 H C2H3^+
e + C2H6 => e + e + H2 + H2 + C2H2^+		! f57 * Bolsig+ C2H6 -> H2 H2 C2H2^+
e + C2H6(v24) => e + e + H2 + H2 + C2H2^+		! f57 * Bolsig+ C2H6(v24) -> H2 H2 C2H2^+
e + C2H6(v13) => e + e + H2 + H2 + C2H2^+		! f57 * Bolsig+ C2H6(v13) -> H2 H2 C2H2^+
e + C2H6 => e + e + CH3 + CH3^+		! f58 * Bolsig+ C2H6 -> CH3 CH3^+
e + C2H6(v24) => e + e + CH3 + CH3^+		! f58 * Bolsig+ C2H6(v24) -> CH3 CH3^+
e + C2H6(v13) => e + e + CH3 + CH3^+		! f58 * Bolsig+ C2H6(v13) -> CH3 CH3^+
e + C2H6 => e + e + CH4 + CH2^+		! f59 * Bolsig+ C2H6 -> CH4 CH2^+
e + C2H6(v24) => e + e + CH4 + CH2^+		! f59 * Bolsig+ C2H6(v24) -> CH4 CH2^+
e + C2H6(v13) => e + e + CH4 + CH2^+		! f59 * Bolsig+ C2H6(v13) -> CH4 CH2^+
e + C2H5 => e + e + C2H5^+		! f60 * Bolsig+ C2H5 -> C2H5^+
e + C2H5 => e + e + H + C2H4^+		! f61 * Bolsig+ C2H5 -> H C2H4^+
e + C2H5 => e + e + H2 + C2H3^+		! f62 * Bolsig+ C2H5 -> H2 C2H3^+
e + C2H5 => e + e + H2 + H + C2H2^+		! f63 * Bolsig+ C2H5 -> H2 H C2H2^+
e + C2H5 => e + e + CH2 + CH3^+		! f64 * Bolsig+ C2H5 -> CH2 CH3^+
e + C2H5 => e + e + CH3 + CH2^+		! f65 * Bolsig+ C2H5 -> CH3 CH2^+
e + C2H5 => e + e + CH4 + CH^+		! f66 * Bolsig+ C2H5 -> CH4 CH^+
e + C2H4 => e + e + C2H4^+		! f67 * Bolsig+ C2H4 -> C2H4^+
e + C2H4(v1) => e + e + C2H4^+		! f67 * Bolsig+ C2H4(v1) -> C2H4^+
e + C2H4(v2) => e + e + C2H4^+		! f67 * Bolsig+ C2H4(v2) -> C2H4^+
e + C2H4 => e + e + H + C2H3^+		! f68 * Bolsig+ C2H4 -> H C2H3^+
e + C2H4(v1) => e + e + H + C2H3^+		! f68 * Bolsig+ C2H4(v1) -> H C2H3^+
e + C2H4(v2) => e + e + H + C2H3^+		! f68 * Bolsig+ C2H4(v2) -> H C2H3^+
e + C2H4 => e + e + CH + CH3^+		! f69 * Bolsig+ C2H4 -> CH CH3^+
e + C2H4(v1) => e + e + CH + CH3^+		! f69 * Bolsig+ C2H4(v1) -> CH CH3^+
e + C2H4(v2) => e + e + CH + CH3^+		! f69 * Bolsig+ C2H4(v2) -> CH CH3^+
e + C2H4 => e + e + CH2 + CH2^+		! f70 * Bolsig+ C2H4 -> CH2 CH2^+
e + C2H4(v1) => e + e + CH2 + CH2^+		! f70 * Bolsig+ C2H4(v1) -> CH2 CH2^+
e + C2H4(v2) => e + e + CH2 + CH2^+		! f70 * Bolsig+ C2H4(v2) -> CH2 CH2^+
e + C2H4 => e + e + CH3 + CH^+		! f71 * Bolsig+ C2H4 -> CH3 CH^+
e + C2H4(v1) => e + e + CH3 + CH^+		! f71 * Bolsig+ C2H4(v1) -> CH3 CH^+
e + C2H4(v2) => e + e + CH3 + CH^+		! f71 * Bolsig+ C2H4(v2) -> CH3 CH^+
e + C2H3 => e + e + C2H3^+		! f72 * Bolsig+ C2H3 -> C2H3^+
e + C2H3 => e + e + H + C2H2^+		! f73 * Bolsig+ C2H3 -> H C2H2^+
e + C2H3 => e + e + CH + CH2^+		! f74 * Bolsig+ C2H3 -> CH CH2^+
e + C2H3 => e + e + CH2 + CH^+		! f75 * Bolsig+ C2H3 -> CH2 CH^+
e + C2H3 => e + e + C2H2 + H^+		! f76 * Bolsig+ C2H3 -> C2H2 H^+
e + C2H2 => e + e + C2H2^+		! f77 * Bolsig+ C2H2 -> C2H2^+
e + C2H2(v5) => e + e + C2H2^+		! f77 * Bolsig+ C2H2(v5) -> C2H2^+
e + C2H2(v2) => e + e + C2H2^+		! f77 * Bolsig+ C2H2(v2) -> C2H2^+
e + C2H2(v13) => e + e + C2H2^+		! f77 * Bolsig+ C2H2(v13) -> C2H2^+
e + C2H2 => e + e + CH + CH^+		! f78 * Bolsig+ C2H2 -> CH CH^+
e + C2H2(v5) => e + e + CH + CH^+		! f78 * Bolsig+ C2H2(v5) -> CH CH^+
e + C2H2(v2) => e + e + CH + CH^+		! f78 * Bolsig+ C2H2(v2) -> CH CH^+
e + C2H2(v13) => e + e + CH + CH^+		! f78 * Bolsig+ C2H2(v13) -> CH CH^+
e + C3H8 => e + C3H7 + H		! f79 * Bolsig+ C3H8 -> C3H7 H
e + C3H8(v1) => e + C3H7 + H		! f79 * Bolsig+ C3H8(v1) -> C3H7 H
e + C3H8(v2) => e + C3H7 + H		! f79 * Bolsig+ C3H8(v2) -> C3H7 H
e + C3H8 => e + C3H6 + H2		! f80 * Bolsig+ C3H8 -> C3H6 H2
e + C3H8(v1) => e + C3H6 + H2		! f80 * Bolsig+ C3H8(v1) -> C3H6 H2
e + C3H8(v2) => e + C3H6 + H2		! f80 * Bolsig+ C3H8(v2) -> C3H6 H2
e + C3H7 => e + C3H6 + H		! f81 * Bolsig+ C3H7 -> C3H6 H
e + C3H8 => e + e + C3H8^+		! f82 * Bolsig+ C3H8 -> C3H8^+
e + C3H8(v1) => e + e + C3H8^+		! f82 * Bolsig+ C3H8(v1) -> C3H8^+
e + C3H8(v2) => e + e + C3H8^+		! f82 * Bolsig+ C3H8(v2) -> C3H8^+
e + C3H8 => e + e + H + C3H7^+		! f83 * Bolsig+ C3H8 -> H C3H7^+
e + C3H8(v1) => e + e + H + C3H7^+		! f83 * Bolsig+ C3H8(v1) -> H C3H7^+
e + C3H8(v2) => e + e + H + C3H7^+		! f83 * Bolsig+ C3H8(v2) -> H C3H7^+
e + C3H8 => e + e + H2 + C3H6^+		! f84 * Bolsig+ C3H8 -> H2 C3H6^+
e + C3H8(v1) => e + e + H2 + C3H6^+		! f84 * Bolsig+ C3H8(v1) -> H2 C3H6^+
e + C3H8(v2) => e + e + H2 + C3H6^+		! f84 * Bolsig+ C3H8(v2) -> H2 C3H6^+
e + C3H7 => e + e + C3H7^+		! f85 * Bolsig+ C3H7 -> C3H7^+
e + C3H7 => e + e + H + C3H6^+		! f86 * Bolsig+ C3H7 -> H C3H6^+
e + C3H6 => e + e + C3H6^+		! f87 * Bolsig+ C3H6 -> C3H6^+
e + C3H6(v) => e + e + C3H6^+		! f87 * Bolsig+ C3H6(v) -> C3H6^+
e + C3H6 => e + C2H2 + CH4		! f88 * Bolsig+ C3H6 -> C2H2 CH4
e + C3H6(v) => e + C2H2 + CH4		! f88 * Bolsig+ C3H6(v) -> C2H2 CH4
e + C3H6 => e + e + C2H2 + CH4^+		! f89 * Bolsig+ C3H6 -> C2H2 CH4^+
e + C3H6(v) => e + e + C2H2 + CH4^+		! f89 * Bolsig+ C3H6(v) -> C2H2 CH4^+

# Ion Recombination Reaction
e + e + CH^+ => e + CH		! f90 * 1.00d0
e + e + CH2^+ => e + CH2		! f91 * 1.00d0
e + e + CH3^+ => e + CH3		! f92 * 1.00d0
e + e + CH4^+ => e + CH4		! f93 * 1.00d0
e + e + C2H2^+ => e + C2H2		! f94 * 1.00d0
e + e + C2H3^+ => e + C2H3		! f95 * 1.00d0
e + e + C2H4^+ => e + C2H4		! f96 * 1.00d0
e + e + C2H5^+ => e + C2H5		! f97 * 1.00d0
e + e + C2H6^+ => e + C2H6		! f98 * 1.00d0
e + e + C3H6^+ => e + C3H6		! f99 * 1.00d0
e + e + C3H7^+ => e + C3H7		! f100 * 1.00d0
e + e + C3H8^+ => e + C3H8		! f101 * 1.00d0

# Gas Phase Reaction
e + CH4^+ => CH3 + H		! f102 * 1.18d-08 * (300./Tgas)**0.5
e + CH4^+ => CH2 + H + H		! f103 * 2.42d-08 * (300./Tgas)**0.5
e + CH4^+ => CH + H2 + H		! f104 * 1.41d-08 * (300./Tgas)**0.5
e + CH3^+ => CH2 + H		! f105 * 2.25d-08 * (300./Tgas)**0.5
e + CH3^+ => CH + H2		! f106 * 7.88d-09 * (300./Tgas)**0.5
e + CH3^+ => CH + H + H		! f107 * 9.00d-09 * (300./Tgas)**0.5
e + CH3^+ => C + H2 + H		! f108 * 1.69d-08 * (300./Tgas)**0.5
e + CH2^+ => CH + H		! f109 * 1.00d-08 * (300./Tgas)**0.5
e + CH2^+ => C + H2		! f110 * 4.82d-09 * (300./Tgas)**0.5
e + CH2^+ => C + H + H		! f111 * 2.53d-08 * (300./Tgas)**0.5
e + CH^+ => C + H		! f112 * 3.23d-08 * (300./Tgas)**0.42
e + C2H6^+ => C2H5 + H		! f113 * 2.19d-08 * (300./Tgas)**0.71
e + C2H6^+ => C2H4 + H + H		! f114 * 3.36d-08 * (300./Tgas)**0.71
e + C2H5^+ => C2H4 + H		! f115 * 7.70d-09 * (300./Tgas)**0.71
e + C2H5^+ => C2H3 + H + H		! f116 * 1.92d-08 * (300./Tgas)**0.71
e + C2H5^+ => C2H2 + H2 + H		! f117 * 1.60d-08 * (300./Tgas)**0.71
e + C2H5^+ => C2H2 + H + H + H		! f118 * 8.98d-09 * (300./Tgas)**0.71
e + C2H5^+ => CH3 + CH2		! f119 * 9.62d-09 * (300./Tgas)**0.71
e + C2H4^+ => C2H3 + H		! f120 * 8.29d-09 * (300./Tgas)**0.71
e + C2H4^+ => C2H2 + H + H		! f121 * 3.43d-08 * (300./Tgas)**0.71
e + C2H3^+ => C2H2 + H		! f122 * 1.34d-08 * (300./Tgas)**0.71
e + C2H2^+ => CH + CH		! f123 * 4.87d-09 * (300./Tgas)**0.71
e + H2^+ => H + H		! f124 * 3.17d21/(6.022d23 * Te**4.5)
e + H3^+ => H + H2		! f125 * 3.17d21/(6.022d23 * Te**4.5)
H2 + H2^+ => H + H3^+		! f126 * 2.11d-09
C2H6 + CH4^+ => CH4 + H2 + C2H4^+		! f127 * 1.91d-9
C2H6(v24) + CH4^+ => CH4 + H2 + C2H4^+		! f127 * 1.91d-9
C2H6(v13) + CH4^+ => CH4 + H2 + C2H4^+		! f127 * 1.91d-9
C2H4 + CH4^+ => CH3 + C2H5^+		! f128 * 4.23d-10