ELEMENTS
e C H
END

SPECIES
e C CH CH^+ CH2 CH2^+ CH3 CH3^+ CH4 CH4(v13) CH4(v24) CH4^+ C2H2 C2H2(v13) C2H2(v2) C2H2(v5) C2H2^+ C2H3 C2H3^+ C2H4 C2H4(v1) C2H4(v2) C2H4^+ C2H5 C2H5^+
C2H6 C2H6(v13) C2H6(v24) C2H6^+ C3H5 C3H6 C3H6(v) C3H6^+ C3H7 C3H7^+ C3H8 C3H8(v1) C3H8(v2) C3H8^+ C4H9 C4H9H C2H C5H12 H H2 H2^+ H3^+ H^+
END

BOLSIG
CH CH2 CH3 CH4 CH4(v13) CH4(v24) C2H2 C2H2(v13) C2H2(v2) C2H2(v5) C2H3 C2H4 C2H4(v1) C2H4(v2) C2H5 C2H6 C2H6(v13) C2H6(v24) C3H6 C3H6(v) C3H7 C3H8 C3H8(v1) C3H8(v2)
END

REACTIONS
# Gas Constant
$ double precision, parameter :: R = 8.314d-3

# Compensation Parameters
$ double precision, parameter :: f0 = 1.2072d-7
$ double precision, parameter :: f1 = 3.0744d-4
$ double precision, parameter :: f2 = 1.4300d-1
$ double precision, parameter :: f3 = 1.4170d-6
$ double precision, parameter :: f4 = 1.0737d-2
$ double precision, parameter :: f5 = 6.6104d+1
$ double precision, parameter :: f6 = 1.0796d-8
$ double precision, parameter :: f7 = 9.0219d-6
$ double precision, parameter :: f8 = 5.1109d-1
$ double precision, parameter :: f9 = 2.3817d-2
$ double precision, parameter :: f10 = 1.6350d-4
$ double precision, parameter :: f11 = 5.5246d-5
$ double precision, parameter :: f12 = 1.5582d-7
$ double precision, parameter :: f13 = 1.1523d-4
$ double precision, parameter :: f14 = 9.8527d-1
$ double precision, parameter :: f15 = 4.5609d-3
$ double precision, parameter :: f16 = 9.9354d-5
$ double precision, parameter :: f17 = 5.9841d+2
$ double precision, parameter :: f18 = 8.4991d-2
$ double precision, parameter :: f19 = 1.7722d-2
$ double precision, parameter :: f20 = 5.2260d-8
$ double precision, parameter :: f21 = 6.2283d-4
$ double precision, parameter :: f22 = 2.7015d-7
$ double precision, parameter :: f23 = 4.1725d-3
$ double precision, parameter :: f24 = 9.9989d-8
$ double precision, parameter :: f25 = 1.9502d-6
$ double precision, parameter :: f26 = 1.5955d-3
$ double precision, parameter :: f27 = 7.2936d-8
$ double precision, parameter :: f28 = 8.5368d-3
$ double precision, parameter :: f29 = 7.5489d-7
$ double precision, parameter :: f30 = 6.5764d-5
$ double precision, parameter :: f31 = 4.4740d-2
$ double precision, parameter :: f32 = 5.1094d-7
$ double precision, parameter :: f33 = 1.5943d-5
$ double precision, parameter :: f34 = 5.4825d-4
$ double precision, parameter :: f35 = 7.1779d-6
$ double precision, parameter :: f36 = 1.8321d-3
$ double precision, parameter :: f37 = 6.7817d-6
$ double precision, parameter :: f38 = 3.1643d-6
$ double precision, parameter :: f39 = 6.4928d-2
$ double precision, parameter :: f40 = 1.2541d-6
$ double precision, parameter :: f41 = 1.7832d-6
$ double precision, parameter :: f42 = 1.6155d+1
$ double precision, parameter :: f43 = 5.4179d-1
$ double precision, parameter :: f44 = 4.0786d+2
$ double precision, parameter :: f45 = 2.5849d-1
$ double precision, parameter :: f46 = 4.5314d-1
$ double precision, parameter :: f47 = 4.2770d+2
$ double precision, parameter :: f48 = 1.6194d-8
$ double precision, parameter :: f49 = 1.1014d-5
$ double precision, parameter :: f50 = 4.2997d0
$ double precision, parameter :: f51 = 6.4243d-6
$ double precision, parameter :: f52 = 2.8199d-3
$ double precision, parameter :: f53 = 1.7382d-7
$ double precision, parameter :: f54 = 4.6294d+2
$ double precision, parameter :: f55 = 5.1639d+2
$ double precision, parameter :: f56 = 1.1122d-6
$ double precision, parameter :: f57 = 1.2972d-7
$ double precision, parameter :: f58 = 2.2560d-7
$ double precision, parameter :: f59 = 7.6140d0
$ double precision, parameter :: f60 = 5.7674d-7
$ double precision, parameter :: f61 = 1.7376d+1
$ double precision, parameter :: f62 = 1.8815d-1
$ double precision, parameter :: f63 = 1.1249d-8
$ double precision, parameter :: f64 = 1.9487d-6
$ double precision, parameter :: f65 = 6.1193d-6
$ double precision, parameter :: f66 = 2.6449d+1
$ double precision, parameter :: f67 = 8.9266d0
$ double precision, parameter :: f68 = 1.1337d0
$ double precision, parameter :: f69 = 1.9004d+2
$ double precision, parameter :: f70 = 1.4858d-3
$ double precision, parameter :: f71 = 4.1146d-8
$ double precision, parameter :: f72 = 3.8784d-7
$ double precision, parameter :: f73 = 5.1154d-8
$ double precision, parameter :: f74 = 4.7528d-3
$ double precision, parameter :: f75 = 1.8152d-3
$ double precision, parameter :: f76 = 1.8102d+2
$ double precision, parameter :: f77 = 4.4473d-8
$ double precision, parameter :: f78 = 4.9165d-4
$ double precision, parameter :: f79 = 4.2968d-5
$ double precision, parameter :: f80 = 1.1198d+1
$ double precision, parameter :: f81 = 4.1643d+2
$ double precision, parameter :: f82 = 4.4443d-3
$ double precision, parameter :: f83 = 1.7471d-1
$ double precision, parameter :: f84 = 9.7879d-6
$ double precision, parameter :: f85 = 5.1914d-7
$ double precision, parameter :: f86 = 1.0330d0
$ double precision, parameter :: f87 = 1.6629d-3
$ double precision, parameter :: f88 = 1.0495d+2
$ double precision, parameter :: f89 = 2.3336d-6
$ double precision, parameter :: f90 = 2.3477d-2
$ double precision, parameter :: f91 = 4.3358d-5
$ double precision, parameter :: f92 = 6.0183d+2
$ double precision, parameter :: f93 = 4.1367d-6
$ double precision, parameter :: f94 = 5.6454d-1
$ double precision, parameter :: f95 = 1.5428d-4
$ double precision, parameter :: f96 = 4.5566d+2
$ double precision, parameter :: f97 = 2.4880d-5
$ double precision, parameter :: f98 = 1.9643d-2
$ double precision, parameter :: f99 = 2.6772d-3
$ double precision, parameter :: f100 = 3.7693d-8
$ double precision, parameter :: f101 = 5.4786d-2
$ double precision, parameter :: f102 = 7.6918d-8
$ double precision, parameter :: f103 = 6.2713d-7
$ double precision, parameter :: f104 = 2.1529d-1
$ double precision, parameter :: f105 = 1.1359d-3
$ double precision, parameter :: f106 = 3.8284d0
$ double precision, parameter :: f107 = 3.6296d+1
$ double precision, parameter :: f108 = 2.1773d0
$ double precision, parameter :: f109 = 5.1187d-4
$ double precision, parameter :: f110 = 4.2089d-1
$ double precision, parameter :: f111 = 2.7652d-1
$ double precision, parameter :: f112 = 9.2864d0
$ double precision, parameter :: f113 = 8.3904d-1
$ double precision, parameter :: f114 = 1.8178d+1
$ double precision, parameter :: f115 = 3.9603d-3
$ double precision, parameter :: f116 = 5.9185d-3
$ double precision, parameter :: f117 = 6.0690d0
$ double precision, parameter :: f118 = 3.0238d+2
$ double precision, parameter :: f119 = 1.2041d-8
$ double precision, parameter :: f120 = 4.7163d-5
$ double precision, parameter :: f121 = 5.5714d+1
$ double precision, parameter :: f122 = 5.6145d0
$ double precision, parameter :: f123 = 2.8355d-6
$ double precision, parameter :: f124 = 7.6983d-1
$ double precision, parameter :: f125 = 1.6427d-5
$ double precision, parameter :: f126 = 1.3825d-1
$ double precision, parameter :: f127 = 9.4352d-1
$ double precision, parameter :: f128 = 1.0707d-8
$ double precision, parameter :: f129 = 7.2797d-6
$ double precision, parameter :: f130 = 9.3377d0
$ double precision, parameter :: f131 = 1.1543d-7
$ double precision, parameter :: f132 = 6.9186d0
$ double precision, parameter :: f133 = 7.4597d-4
$ double precision, parameter :: f134 = 4.9897d-1
$ double precision, parameter :: f135 = 5.6357d-3
$ double precision, parameter :: f136 = 8.1557d+1
$ double precision, parameter :: f137 = 2.9975d-8
$ double precision, parameter :: f138 = 3.3596d-7
$ double precision, parameter :: f139 = 2.1303d-7
$ double precision, parameter :: f140 = 1.3741d-8
$ double precision, parameter :: f141 = 1.6471d-3
$ double precision, parameter :: f142 = 9.0509d-5
$ double precision, parameter :: f143 = 3.7749d-3
$ double precision, parameter :: f144 = 2.0385d-6
$ double precision, parameter :: f145 = 2.7003d0
$ double precision, parameter :: f146 = 8.9381d+1
$ double precision, parameter :: f147 = 5.4558d-1
$ double precision, parameter :: f148 = 1.9850d-1
$ double precision, parameter :: f149 = 1.3825d-7
$ double precision, parameter :: f150 = 1.3267d-4
$ double precision, parameter :: f151 = 4.5311d-8
$ double precision, parameter :: f152 = 2.7763d-2
$ double precision, parameter :: f153 = 3.5295d-4
$ double precision, parameter :: f154 = 5.6073d-3
$ double precision, parameter :: f155 = 1.8899d-4
$ double precision, parameter :: f156 = 3.6396d-8
$ double precision, parameter :: f157 = 1.1496d-1
$ double precision, parameter :: f158 = 1.3018d-7
$ double precision, parameter :: f159 = 2.8651d+1
$ double precision, parameter :: f160 = 5.8315d+1
$ double precision, parameter :: f161 = 3.1215d-2
$ double precision, parameter :: f162 = 8.8164d-8
$ double precision, parameter :: f163 = 7.3587d-1
$ double precision, parameter :: f164 = 1.4404d-2
$ double precision, parameter :: f165 = 1.6188d+2
$ double precision, parameter :: f166 = 3.9636d+1
$ double precision, parameter :: f167 = 1.8879d+1
$ double precision, parameter :: f168 = 1.0972d-5
$ double precision, parameter :: f169 = 1.3691d-4
$ double precision, parameter :: f170 = 2.4725d-8
$ double precision, parameter :: f171 = 4.5869d-4
$ double precision, parameter :: f172 = 6.6184d-1
$ double precision, parameter :: f173 = 5.1720d-5
$ double precision, parameter :: f174 = 1.4885d-6
$ double precision, parameter :: f175 = 4.1142d-8
$ double precision, parameter :: f176 = 2.6690d-6
$ double precision, parameter :: f177 = 1.4952d-8
$ double precision, parameter :: f178 = 1.7334d+2
$ double precision, parameter :: f179 = 8.6776d-5
$ double precision, parameter :: f180 = 1.6068d-1
$ double precision, parameter :: f181 = 2.1844d-4
$ double precision, parameter :: f182 = 1.8532d-6
$ double precision, parameter :: f183 = 4.5953d-3
$ double precision, parameter :: f184 = 1.0377d-5
$ double precision, parameter :: f185 = 1.8307d-7
$ double precision, parameter :: f186 = 7.8155d+1
$ double precision, parameter :: f187 = 3.2247d-5
$ double precision, parameter :: f188 = 1.0433d-6
$ double precision, parameter :: f189 = 1.2153d-8
$ double precision, parameter :: f190 = 1.6062d-6
$ double precision, parameter :: f191 = 4.1402d-5
$ double precision, parameter :: f192 = 1.7459d-5
$ double precision, parameter :: f193 = 2.8767d-7
$ double precision, parameter :: f194 = 5.1867d0
$ double precision, parameter :: f195 = 1.3987d+2
$ double precision, parameter :: f196 = 1.5404d-1
$ double precision, parameter :: f197 = 1.1008d+2
$ double precision, parameter :: f198 = 2.8837d-6
$ double precision, parameter :: f199 = 3.9122d-2
$ double precision, parameter :: f200 = 2.7836d-8
$ double precision, parameter :: f201 = 4.2222d-4
$ double precision, parameter :: f202 = 7.9236d-5
$ double precision, parameter :: f203 = 2.8624d-6
$ double precision, parameter :: f204 = 3.4461d-2
$ double precision, parameter :: f205 = 6.1210d+1
$ double precision, parameter :: f206 = 1.5883d+2
$ double precision, parameter :: f207 = 1.6479d+2
$ double precision, parameter :: f208 = 1.8713d-1
$ double precision, parameter :: f209 = 6.9225d+1
$ double precision, parameter :: f210 = 4.3814d-4
$ double precision, parameter :: f211 = 6.0156d-8
$ double precision, parameter :: f212 = 5.6054d+1
$ double precision, parameter :: f213 = 1.7104d0
$ double precision, parameter :: f214 = 2.0119d+1
$ double precision, parameter :: f215 = 2.3989d-8
$ double precision, parameter :: f216 = 4.6129d-7
$ double precision, parameter :: f217 = 3.0845d-4
$ double precision, parameter :: f218 = 2.6882d-6
$ double precision, parameter :: f219 = 5.2474d-1
$ double precision, parameter :: f220 = 1.6392d0
$ double precision, parameter :: f221 = 1.6955d0
$ double precision, parameter :: f222 = 6.8732d-5
$ double precision, parameter :: f223 = 6.3245d+2
$ double precision, parameter :: f224 = 9.9042d-2
$ double precision, parameter :: f225 = 6.5839d-8
$ double precision, parameter :: f226 = 4.9247d-6
$ double precision, parameter :: f227 = 1.6080d-4
$ double precision, parameter :: f228 = 1.2849d-4
$ double precision, parameter :: f229 = 4.1817d-3
$ double precision, parameter :: f230 = 1.6405d-1
$ double precision, parameter :: f231 = 1.6464d0
$ double precision, parameter :: f232 = 3.1450d-2
$ double precision, parameter :: f233 = 7.1799d-3
$ double precision, parameter :: f234 = 2.5643d-4
$ double precision, parameter :: f235 = 7.7387d0
$ double precision, parameter :: f236 = 2.3256d-5
$ double precision, parameter :: f237 = 2.2248d-8
$ double precision, parameter :: f238 = 1.1484d+1
$ double precision, parameter :: f239 = 1.9225d-7
$ double precision, parameter :: f240 = 1.7459d-8
$ double precision, parameter :: f241 = 3.0142d+1
$ double precision, parameter :: f242 = 1.2916d0
$ double precision, parameter :: f243 = 1.0509d-2
$ double precision, parameter :: f244 = 2.0907d-2
$ double precision, parameter :: f245 = 2.9179d-7
$ double precision, parameter :: f246 = 6.3207d-5
$ double precision, parameter :: f247 = 4.3322d+2
$ double precision, parameter :: f248 = 8.6506d-3
$ double precision, parameter :: f249 = 1.4504d-6
$ double precision, parameter :: f250 = 1.9314d-2
$ double precision, parameter :: f251 = 3.5008d-8
$ double precision, parameter :: f252 = 1.5731d-5
$ double precision, parameter :: f253 = 1.8231d-5
$ double precision, parameter :: f254 = 1.2326d-5
$ double precision, parameter :: f255 = 1.6973d-5
$ double precision, parameter :: f256 = 7.9863d-2
$ double precision, parameter :: f257 = 7.1693d-3
$ double precision, parameter :: f258 = 2.2910d-6
$ double precision, parameter :: f259 = 1.8616d-8
$ double precision, parameter :: f260 = 2.8561d-8
$ double precision, parameter :: f261 = 4.1070d-2
$ double precision, parameter :: f262 = 2.8207d-3
$ double precision, parameter :: f263 = 6.8863d+1
$ double precision, parameter :: f264 = 4.6676d0
$ double precision, parameter :: f265 = 2.0233d-4
$ double precision, parameter :: f266 = 2.7364d+1
$ double precision, parameter :: f267 = 2.3106d-8
$ double precision, parameter :: f268 = 6.3332d-2
$ double precision, parameter :: f269 = 8.9974d+2
$ double precision, parameter :: f270 = 3.8822d+2
$ double precision, parameter :: f271 = 6.4997d-7
$ double precision, parameter :: f272 = 6.7396d-6
$ double precision, parameter :: f273 = 2.0068d0
$ double precision, parameter :: f274 = 2.7783d-2
$ double precision, parameter :: f275 = 2.3722d0
$ double precision, parameter :: f276 = 2.9086d-7
$ double precision, parameter :: f277 = 4.9465d-7
$ double precision, parameter :: f278 = 1.3943d-2
$ double precision, parameter :: f279 = 3.8203d-1
$ double precision, parameter :: f280 = 5.5880d0
$ double precision, parameter :: f281 = 3.5788d+2
$ double precision, parameter :: f282 = 5.4664d-2
$ double precision, parameter :: f283 = 6.6339d-2
$ double precision, parameter :: f284 = 1.9215d-3
$ double precision, parameter :: f285 = 1.0449d-7
$ double precision, parameter :: f286 = 1.0961d-2
$ double precision, parameter :: f287 = 3.4520d+1
$ double precision, parameter :: f288 = 2.9121d-3
$ double precision, parameter :: f289 = 4.3820d-2
$ double precision, parameter :: f290 = 4.2774d-3
$ double precision, parameter :: f291 = 1.1650d-3
$ double precision, parameter :: f292 = 2.2741d-5
$ double precision, parameter :: f293 = 1.8393d+1
$ double precision, parameter :: f294 = 3.9053d+2
$ double precision, parameter :: f295 = 1.4385d-2
$ double precision, parameter :: f296 = 2.1469d-5
$ double precision, parameter :: f297 = 3.4949d+2
$ double precision, parameter :: f298 = 8.8270d+1
$ double precision, parameter :: f299 = 2.4573d+2
$ double precision, parameter :: f300 = 7.7007d-3
$ double precision, parameter :: f301 = 2.0938d-8
$ double precision, parameter :: f302 = 7.2890d0
$ double precision, parameter :: f303 = 3.0984d-1
$ double precision, parameter :: f304 = 6.9906d-4
$ double precision, parameter :: f305 = 1.7850d+1
$ double precision, parameter :: f306 = 5.2674d-2
$ double precision, parameter :: f307 = 5.3172d-7
$ double precision, parameter :: f308 = 1.4167d-7
$ double precision, parameter :: f309 = 2.8791d-1
$ double precision, parameter :: f310 = 3.6680d0
$ double precision, parameter :: f311 = 1.9478d-5
$ double precision, parameter :: f312 = 1.6770d0
$ double precision, parameter :: f313 = 6.7194d-7
$ double precision, parameter :: f314 = 8.2193d-6
$ double precision, parameter :: f315 = 4.8589d-1

# Electron Collision Reaction
e + CH4 => e + CH4(v24)		! f0 * Bolsig+ CH4 -> CH4(v24)
e + CH4 => e + CH4(v13)		! f1 * Bolsig+ CH4 -> CH4(v13)
e + C2H6 => e + C2H6(v24)		! f2 * Bolsig+ C2H6 -> C2H6(v24)
e + C2H6 => e + C2H6(v13)		! f3 * Bolsig+ C2H6 -> C2H6(v13)
e + C2H4 => e + C2H4(v1)		! f4 * Bolsig+ C2H4 -> C2H4(v1)
e + C2H4 => e + C2H4(v2)		! f5 * Bolsig+ C2H4 -> C2H4(v2)
e + C2H2 => e + C2H2(v5)		! f6 * Bolsig+ C2H2 -> C2H2(v5)
e + C2H2 => e + C2H2(v2)		! f7 * Bolsig+ C2H2 -> C2H2(v2)
e + C2H2 => e + C2H2(v13)		! f8 * Bolsig+ C2H2 -> C2H2(v13)
e + C3H8 => e + C3H8(v1)		! f9 * Bolsig+ C3H8 -> C3H8(v1)
e + C3H8 => e + C3H8(v2)		! f10 * Bolsig+ C3H8 -> C3H8(v2)
e + C3H6 => e + C3H6(v)		! f11 * Bolsig+ C3H6 -> C3H6(v)
e + CH4 => e + CH3 + H		! f12 * Bolsig+ CH4 -> CH3 H
e + CH4(v24) => e + CH3 + H		! f12 * Bolsig+ CH4(v24) -> CH3 H
e + CH4(v13) => e + CH3 + H		! f12 * Bolsig+ CH4(v13) -> CH3 H
e + CH4 => e + CH2 + H2		! f13 * Bolsig+ CH4 -> CH2 H2
e + CH4(v24) => e + CH2 + H2		! f13 * Bolsig+ CH4(v24) -> CH2 H2
e + CH4(v13) => e + CH2 + H2		! f13 * Bolsig+ CH4(v13) -> CH2 H2
e + CH4 => e + CH + H2 + H		! f14 * Bolsig+ CH4 -> CH H2 H
e + CH4(v24) => e + CH + H2 + H		! f14 * Bolsig+ CH4(v24) -> CH H2 H
e + CH4(v13) => e + CH + H2 + H		! f14 * Bolsig+ CH4(v13) -> CH H2 H
e + CH4 => e + C + H2 + H2		! f15 * Bolsig+ CH4 -> C H2 H2
e + CH4(v24) => e + C + H2 + H2		! f15 * Bolsig+ CH4(v24) -> C H2 H2
e + CH4(v13) => e + C + H2 + H2		! f15 * Bolsig+ CH4(v13) -> C H2 H2
e + CH3 => e + CH2 + H		! f16 * Bolsig+ CH3 -> CH2 H
e + CH3 => e + CH + H2		! f17 * Bolsig+ CH3 -> CH H2
e + CH3 => e + C + H2 + H		! f18 * Bolsig+ CH3 -> C H2 H
e + CH2 => e + CH + H		! f19 * Bolsig+ CH2 -> CH H
e + CH2 => e + C + H2		! f20 * Bolsig+ CH2 -> C H2
e + CH2 => e + C + H + H		! f21 * Bolsig+ CH2 -> C H H
e + CH => e + C + H		! f22 * Bolsig+ CH -> C H
e + CH4 => e + e + CH4^+		! f23 * Bolsig+ CH4 -> CH4^+
e + CH4(v24) => e + e + CH4^+		! f23 * Bolsig+ CH4(v24) -> CH4^+
e + CH4(v13) => e + e + CH4^+		! f23 * Bolsig+ CH4(v13) -> CH4^+
e + CH4 => e + e + H + CH3^+		! f24 * Bolsig+ CH4 -> H CH3^+
e + CH4(v24) => e + e + H + CH3^+		! f24 * Bolsig+ CH4(v24) -> H CH3^+
e + CH4(v13) => e + e + H + CH3^+		! f24 * Bolsig+ CH4(v13) -> H CH3^+
e + CH4 => e + e + H2 + CH2^+		! f25 * Bolsig+ CH4 -> H2 CH2^+
e + CH4(v24) => e + e + H2 + CH2^+		! f25 * Bolsig+ CH4(v24) -> H2 CH2^+
e + CH4(v13) => e + e + H2 + CH2^+		! f25 * Bolsig+ CH4(v13) -> H2 CH2^+
e + CH4 => e + e + H2 + H + CH^+		! f26 * Bolsig+ CH4 -> H2 H CH^+
e + CH4(v24) => e + e + H2 + H + CH^+		! f26 * Bolsig+ CH4(v24) -> H2 H CH^+
e + CH4(v13) => e + e + H2 + H + CH^+		! f26 * Bolsig+ CH4(v13) -> H2 H CH^+
e + CH3 => e + e + CH3^+		! f27 * Bolsig+ CH3 -> CH3^+
e + CH3 => e + e + H + CH2^+		! f28 * Bolsig+ CH3 -> H CH2^+
e + CH3 => e + e + H2 + CH^+		! f29 * Bolsig+ CH3 -> H2 CH^+
e + CH2 => e + e + CH2^+		! f30 * Bolsig+ CH2 -> CH2^+
e + CH2 => e + e + H + CH^+		! f31 * Bolsig+ CH2 -> H CH^+
e + CH => e + e + CH^+		! f32 * Bolsig+ CH -> CH^+
e + C2H6 => e + C2H5 + H		! f33 * Bolsig+ C2H6 -> C2H5 H
e + C2H6(v24) => e + C2H5 + H		! f33 * Bolsig+ C2H6(v24) -> C2H5 H
e + C2H6(v13) => e + C2H5 + H		! f33 * Bolsig+ C2H6(v13) -> C2H5 H
e + C2H6 => e + C2H4 + H2		! f34 * Bolsig+ C2H6 -> C2H4 H2
e + C2H6(v24) => e + C2H4 + H2		! f34 * Bolsig+ C2H6(v24) -> C2H4 H2
e + C2H6(v13) => e + C2H4 + H2		! f34 * Bolsig+ C2H6(v13) -> C2H4 H2
e + C2H6 => e + C2H3 + H2 + H		! f35 * Bolsig+ C2H6 -> C2H3 H2 H
e + C2H6(v24) => e + C2H3 + H2 + H		! f35 * Bolsig+ C2H6(v24) -> C2H3 H2 H
e + C2H6(v13) => e + C2H3 + H2 + H		! f35 * Bolsig+ C2H6(v13) -> C2H3 H2 H
e + C2H6 => e + C2H2 + H2 + H2		! f36 * Bolsig+ C2H6 -> C2H2 H2 H2
e + C2H6(v24) => e + C2H2 + H2 + H2		! f36 * Bolsig+ C2H6(v24) -> C2H2 H2 H2
e + C2H6(v13) => e + C2H2 + H2 + H2		! f36 * Bolsig+ C2H6(v13) -> C2H2 H2 H2
e + C2H6 => e + CH4 + CH2		! f37 * Bolsig+ C2H6 -> CH4 CH2
e + C2H6(v24) => e + CH4 + CH2		! f37 * Bolsig+ C2H6(v24) -> CH4 CH2
e + C2H6(v13) => e + CH4 + CH2		! f37 * Bolsig+ C2H6(v13) -> CH4 CH2
e + C2H6 => e + CH3 + CH3		! f38 * Bolsig+ C2H6 -> CH3 CH3
e + C2H6(v24) => e + CH3 + CH3		! f38 * Bolsig+ C2H6(v24) -> CH3 CH3
e + C2H6(v13) => e + CH3 + CH3		! f38 * Bolsig+ C2H6(v13) -> CH3 CH3
e + C2H5 => e + C2H4 + H		! f39 * Bolsig+ C2H5 -> C2H4 H
e + C2H5 => e + C2H3 + H2		! f40 * Bolsig+ C2H5 -> C2H3 H2
e + C2H5 => e + C2H3 + H + H		! f41 * Bolsig+ C2H5 -> C2H3 H H
e + C2H5 => e + C2H2 + H2 + H		! f42 * Bolsig+ C2H5 -> C2H2 H2 H
e + C2H5 => e + CH4 + CH		! f43 * Bolsig+ C2H5 -> CH4 CH
e + C2H5 => e + CH3 + CH2		! f44 * Bolsig+ C2H5 -> CH3 CH2
e + C2H4 => e + C2H3 + H		! f45 * Bolsig+ C2H4 -> C2H3 H
e + C2H4(v1) => e + C2H3 + H		! f45 * Bolsig+ C2H4(v1) -> C2H3 H
e + C2H4(v2) => e + C2H3 + H		! f45 * Bolsig+ C2H4(v2) -> C2H3 H
e + C2H4 => e + C2H2 + H2		! f46 * Bolsig+ C2H4 -> C2H2 H2
e + C2H4(v1) => e + C2H2 + H2		! f46 * Bolsig+ C2H4(v1) -> C2H2 H2
e + C2H4(v2) => e + C2H2 + H2		! f46 * Bolsig+ C2H4(v2) -> C2H2 H2
e + C2H4 => e + C2H2 + H + H		! f47 * Bolsig+ C2H4 -> C2H2 H H
e + C2H4(v1) => e + C2H2 + H + H		! f47 * Bolsig+ C2H4(v1) -> C2H2 H H
e + C2H4(v2) => e + C2H2 + H + H		! f47 * Bolsig+ C2H4(v2) -> C2H2 H H
e + C2H4 => e + CH3 + CH		! f48 * Bolsig+ C2H4 -> CH3 CH
e + C2H4(v1) => e + CH3 + CH		! f48 * Bolsig+ C2H4(v1) -> CH3 CH
e + C2H4(v2) => e + CH3 + CH		! f48 * Bolsig+ C2H4(v2) -> CH3 CH
e + C2H4 => e + CH2 + CH2		! f49 * Bolsig+ C2H4 -> CH2 CH2
e + C2H4(v1) => e + CH2 + CH2		! f49 * Bolsig+ C2H4(v1) -> CH2 CH2
e + C2H4(v2) => e + CH2 + CH2		! f49 * Bolsig+ C2H4(v2) -> CH2 CH2
e + C2H3 => e + C2H2 + H		! f50 * Bolsig+ C2H3 -> C2H2 H
e + C2H3 => e + CH2 + CH		! f51 * Bolsig+ C2H3 -> CH2 CH
e + C2H2 => e + CH + CH		! f52 * Bolsig+ C2H2 -> CH CH
e + C2H2(v5) => e + CH + CH		! f52 * Bolsig+ C2H2(v5) -> CH CH
e + C2H2(v2) => e + CH + CH		! f52 * Bolsig+ C2H2(v2) -> CH CH
e + C2H2(v13) => e + CH + CH		! f52 * Bolsig+ C2H2(v13) -> CH CH
e + C2H6 => e + e + C2H6^+		! f53 * Bolsig+ C2H6 -> C2H6^+
e + C2H6(v24) => e + e + C2H6^+		! f53 * Bolsig+ C2H6(v24) -> C2H6^+
e + C2H6(v13) => e + e + C2H6^+		! f53 * Bolsig+ C2H6(v13) -> C2H6^+
e + C2H6 => e + e + H + C2H5^+		! f54 * Bolsig+ C2H6 -> H C2H5^+
e + C2H6(v24) => e + e + H + C2H5^+		! f54 * Bolsig+ C2H6(v24) -> H C2H5^+
e + C2H6(v13) => e + e + H + C2H5^+		! f54 * Bolsig+ C2H6(v13) -> H C2H5^+
e + C2H6 => e + e + H2 + C2H4^+		! f55 * Bolsig+ C2H6 -> H2 C2H4^+
e + C2H6(v24) => e + e + H2 + C2H4^+		! f55 * Bolsig+ C2H6(v24) -> H2 C2H4^+
e + C2H6(v13) => e + e + H2 + C2H4^+		! f55 * Bolsig+ C2H6(v13) -> H2 C2H4^+
e + C2H6 => e + e + H2 + H + C2H3^+		! f56 * Bolsig+ C2H6 -> H2 H C2H3^+
e + C2H6(v24) => e + e + H2 + H + C2H3^+		! f56 * Bolsig+ C2H6(v24) -> H2 H C2H3^+
e + C2H6(v13) => e + e + H2 + H + C2H3^+		! f56 * Bolsig+ C2H6(v13) -> H2 H C2H3^+
e + C2H6 => e + e + H2 + H2 + C2H2^+		! f57 * Bolsig+ C2H6 -> H2 H2 C2H2^+
e + C2H6(v24) => e + e + H2 + H2 + C2H2^+		! f57 * Bolsig+ C2H6(v24) -> H2 H2 C2H2^+
e + C2H6(v13) => e + e + H2 + H2 + C2H2^+		! f57 * Bolsig+ C2H6(v13) -> H2 H2 C2H2^+
e + C2H6 => e + e + CH3 + CH3^+		! f58 * Bolsig+ C2H6 -> CH3 CH3^+
e + C2H6(v24) => e + e + CH3 + CH3^+		! f58 * Bolsig+ C2H6(v24) -> CH3 CH3^+
e + C2H6(v13) => e + e + CH3 + CH3^+		! f58 * Bolsig+ C2H6(v13) -> CH3 CH3^+
e + C2H6 => e + e + CH4 + CH2^+		! f59 * Bolsig+ C2H6 -> CH4 CH2^+
e + C2H6(v24) => e + e + CH4 + CH2^+		! f59 * Bolsig+ C2H6(v24) -> CH4 CH2^+
e + C2H6(v13) => e + e + CH4 + CH2^+		! f59 * Bolsig+ C2H6(v13) -> CH4 CH2^+
e + C2H5 => e + e + C2H5^+		! f60 * Bolsig+ C2H5 -> C2H5^+
e + C2H5 => e + e + H + C2H4^+		! f61 * Bolsig+ C2H5 -> H C2H4^+
e + C2H5 => e + e + H2 + C2H3^+		! f62 * Bolsig+ C2H5 -> H2 C2H3^+
e + C2H5 => e + e + H2 + H + C2H2^+		! f63 * Bolsig+ C2H5 -> H2 H C2H2^+
e + C2H5 => e + e + CH2 + CH3^+		! f64 * Bolsig+ C2H5 -> CH2 CH3^+
e + C2H5 => e + e + CH3 + CH2^+		! f65 * Bolsig+ C2H5 -> CH3 CH2^+
e + C2H5 => e + e + CH4 + CH^+		! f66 * Bolsig+ C2H5 -> CH4 CH^+
e + C2H4 => e + e + C2H4^+		! f67 * Bolsig+ C2H4 -> C2H4^+
e + C2H4(v1) => e + e + C2H4^+		! f67 * Bolsig+ C2H4(v1) -> C2H4^+
e + C2H4(v2) => e + e + C2H4^+		! f67 * Bolsig+ C2H4(v2) -> C2H4^+
e + C2H4 => e + e + H + C2H3^+		! f68 * Bolsig+ C2H4 -> H C2H3^+
e + C2H4(v1) => e + e + H + C2H3^+		! f68 * Bolsig+ C2H4(v1) -> H C2H3^+
e + C2H4(v2) => e + e + H + C2H3^+		! f68 * Bolsig+ C2H4(v2) -> H C2H3^+
e + C2H4 => e + e + CH + CH3^+		! f69 * Bolsig+ C2H4 -> CH CH3^+
e + C2H4(v1) => e + e + CH + CH3^+		! f69 * Bolsig+ C2H4(v1) -> CH CH3^+
e + C2H4(v2) => e + e + CH + CH3^+		! f69 * Bolsig+ C2H4(v2) -> CH CH3^+
e + C2H4 => e + e + CH2 + CH2^+		! f70 * Bolsig+ C2H4 -> CH2 CH2^+
e + C2H4(v1) => e + e + CH2 + CH2^+		! f70 * Bolsig+ C2H4(v1) -> CH2 CH2^+
e + C2H4(v2) => e + e + CH2 + CH2^+		! f70 * Bolsig+ C2H4(v2) -> CH2 CH2^+
e + C2H4 => e + e + CH3 + CH^+		! f71 * Bolsig+ C2H4 -> CH3 CH^+
e + C2H4(v1) => e + e + CH3 + CH^+		! f71 * Bolsig+ C2H4(v1) -> CH3 CH^+
e + C2H4(v2) => e + e + CH3 + CH^+		! f71 * Bolsig+ C2H4(v2) -> CH3 CH^+
e + C2H3 => e + e + C2H3^+		! f72 * Bolsig+ C2H3 -> C2H3^+
e + C2H3 => e + e + H + C2H2^+		! f73 * Bolsig+ C2H3 -> H C2H2^+
e + C2H3 => e + e + CH + CH2^+		! f74 * Bolsig+ C2H3 -> CH CH2^+
e + C2H3 => e + e + CH2 + CH^+		! f75 * Bolsig+ C2H3 -> CH2 CH^+
e + C2H3 => e + e + C2H2 + H^+		! f76 * Bolsig+ C2H3 -> C2H2 H^+
e + C2H2 => e + e + C2H2^+		! f77 * Bolsig+ C2H2 -> C2H2^+
e + C2H2(v5) => e + e + C2H2^+		! f77 * Bolsig+ C2H2(v5) -> C2H2^+
e + C2H2(v2) => e + e + C2H2^+		! f77 * Bolsig+ C2H2(v2) -> C2H2^+
e + C2H2(v13) => e + e + C2H2^+		! f77 * Bolsig+ C2H2(v13) -> C2H2^+
e + C2H2 => e + e + CH + CH^+		! f78 * Bolsig+ C2H2 -> CH CH^+
e + C2H2(v5) => e + e + CH + CH^+		! f78 * Bolsig+ C2H2(v5) -> CH CH^+
e + C2H2(v2) => e + e + CH + CH^+		! f78 * Bolsig+ C2H2(v2) -> CH CH^+
e + C2H2(v13) => e + e + CH + CH^+		! f78 * Bolsig+ C2H2(v13) -> CH CH^+
e + C3H8 => e + C3H7 + H		! f79 * Bolsig+ C3H8 -> C3H7 H
e + C3H8(v1) => e + C3H7 + H		! f79 * Bolsig+ C3H8(v1) -> C3H7 H
e + C3H8(v2) => e + C3H7 + H		! f79 * Bolsig+ C3H8(v2) -> C3H7 H
e + C3H8 => e + C3H6 + H2		! f80 * Bolsig+ C3H8 -> C3H6 H2
e + C3H8(v1) => e + C3H6 + H2		! f80 * Bolsig+ C3H8(v1) -> C3H6 H2
e + C3H8(v2) => e + C3H6 + H2		! f80 * Bolsig+ C3H8(v2) -> C3H6 H2
e + C3H7 => e + C3H6 + H		! f81 * Bolsig+ C3H7 -> C3H6 H
e + C3H8 => e + e + C3H8^+		! f82 * Bolsig+ C3H8 -> C3H8^+
e + C3H8(v1) => e + e + C3H8^+		! f82 * Bolsig+ C3H8(v1) -> C3H8^+
e + C3H8(v2) => e + e + C3H8^+		! f82 * Bolsig+ C3H8(v2) -> C3H8^+
e + C3H8 => e + e + H + C3H7^+		! f83 * Bolsig+ C3H8 -> H C3H7^+
e + C3H8(v1) => e + e + H + C3H7^+		! f83 * Bolsig+ C3H8(v1) -> H C3H7^+
e + C3H8(v2) => e + e + H + C3H7^+		! f83 * Bolsig+ C3H8(v2) -> H C3H7^+
e + C3H8 => e + e + H2 + C3H6^+		! f84 * Bolsig+ C3H8 -> H2 C3H6^+
e + C3H8(v1) => e + e + H2 + C3H6^+		! f84 * Bolsig+ C3H8(v1) -> H2 C3H6^+
e + C3H8(v2) => e + e + H2 + C3H6^+		! f84 * Bolsig+ C3H8(v2) -> H2 C3H6^+
e + C3H7 => e + e + C3H7^+		! f85 * Bolsig+ C3H7 -> C3H7^+
e + C3H7 => e + e + H + C3H6^+		! f86 * Bolsig+ C3H7 -> H C3H6^+
e + C3H6 => e + e + C3H6^+		! f87 * Bolsig+ C3H6 -> C3H6^+
e + C3H6(v) => e + e + C3H6^+		! f87 * Bolsig+ C3H6(v) -> C3H6^+
e + C3H6 => e + C2H2 + CH4		! f88 * Bolsig+ C3H6 -> C2H2 CH4
e + C3H6(v) => e + C2H2 + CH4		! f88 * Bolsig+ C3H6(v) -> C2H2 CH4
e + C3H6 => e + e + C2H2 + CH4^+		! f89 * Bolsig+ C3H6 -> C2H2 CH4^+
e + C3H6(v) => e + e + C2H2 + CH4^+		! f89 * Bolsig+ C3H6(v) -> C2H2 CH4^+

# Ion Recombination Reaction
e + e + CH^+ => e + CH		! f90 * 1.00d0
e + e + CH2^+ => e + CH2		! f91 * 1.00d0
e + e + CH3^+ => e + CH3		! f92 * 1.00d0
e + e + CH4^+ => e + CH4		! f93 * 1.00d0
e + e + C2H2^+ => e + C2H2		! f94 * 1.00d0
e + e + C2H3^+ => e + C2H3		! f95 * 1.00d0
e + e + C2H4^+ => e + C2H4		! f96 * 1.00d0
e + e + C2H5^+ => e + C2H5		! f97 * 1.00d0
e + e + C2H6^+ => e + C2H6		! f98 * 1.00d0
e + e + C3H6^+ => e + C3H6		! f99 * 1.00d0
e + e + C3H7^+ => e + C3H7		! f100 * 1.00d0
e + e + C3H8^+ => e + C3H8		! f101 * 1.00d0

# Gas Phase Reaction
e + CH4^+ => CH3 + H		! f102 * 1.18d-08 * (300./Tgas)**0.5
e + CH4^+ => CH2 + H + H		! f103 * 2.42d-08 * (300./Tgas)**0.5
e + CH4^+ => CH + H2 + H		! f104 * 1.41d-08 * (300./Tgas)**0.5
e + CH3^+ => CH2 + H		! f105 * 2.25d-08 * (300./Tgas)**0.5
e + CH3^+ => CH + H2		! f106 * 7.88d-09 * (300./Tgas)**0.5
e + CH3^+ => CH + H + H		! f107 * 9.00d-09 * (300./Tgas)**0.5
e + CH3^+ => C + H2 + H		! f108 * 1.69d-08 * (300./Tgas)**0.5
e + CH2^+ => CH + H		! f109 * 1.00d-08 * (300./Tgas)**0.5
e + CH2^+ => C + H2		! f110 * 4.82d-09 * (300./Tgas)**0.5
e + CH2^+ => C + H + H		! f111 * 2.53d-08 * (300./Tgas)**0.5
e + CH^+ => C + H		! f112 * 3.23d-08 * (300./Tgas)**0.42
e + C2H6^+ => C2H5 + H		! f113 * 2.19d-08 * (300./Tgas)**0.71
e + C2H6^+ => C2H4 + H + H		! f114 * 3.36d-08 * (300./Tgas)**0.71
e + C2H5^+ => C2H4 + H		! f115 * 7.70d-09 * (300./Tgas)**0.71
e + C2H5^+ => C2H3 + H + H		! f116 * 1.92d-08 * (300./Tgas)**0.71
e + C2H5^+ => C2H2 + H2 + H		! f117 * 1.60d-08 * (300./Tgas)**0.71
e + C2H5^+ => C2H2 + H + H + H		! f118 * 8.98d-09 * (300./Tgas)**0.71
e + C2H5^+ => CH3 + CH2		! f119 * 9.62d-09 * (300./Tgas)**0.71
e + C2H4^+ => C2H3 + H		! f120 * 8.29d-09 * (300./Tgas)**0.71
e + C2H4^+ => C2H2 + H + H		! f121 * 3.43d-08 * (300./Tgas)**0.71
e + C2H3^+ => C2H2 + H		! f122 * 1.34d-08 * (300./Tgas)**0.71
e + C2H2^+ => CH + CH		! f123 * 4.87d-09 * (300./Tgas)**0.71
e + H2^+ => H + H		! f124 * 3.17d21/(6.022d23 * Te**4.5)
e + H3^+ => H + H2		! f125 * 3.17d21/(6.022d23 * Te**4.5)
H2 + H2^+ => H + H3^+		! f126 * 2.11d-09
C2H6 + CH4^+ => CH4 + H2 + C2H4^+		! f127 * 1.91d-9
C2H6(v24) + CH4^+ => CH4 + H2 + C2H4^+		! f127 * 1.91d-9
C2H6(v13) + CH4^+ => CH4 + H2 + C2H4^+		! f127 * 1.91d-9
C2H4 + CH4^+ => CH3 + C2H5^+		! f128 * 4.23d-10