ELEMENTS
e C H
END

SPECIES
e C CH CH^+ CH2 CH2^+ CH3 CH3^+ CH4 CH4(v13) CH4(v24) CH4^+ C2H2 C2H2(v13) C2H2(v2) C2H2(v5) C2H2^+ C2H3 C2H3^+ C2H4 C2H4(v1) C2H4(v2) C2H4^+ C2H5 C2H5^+
C2H6 C2H6(v13) C2H6(v24) C2H6^+ C3H5 C3H6 C3H6(v) C3H6^+ C3H7 C3H7^+ C3H8 C3H8(v1) C3H8(v2) C3H8^+ C4H9 C4H9H C2H C5H12 H H2 H2^+ H3^+ H^+
END

BOLSIG
CH CH2 CH3 CH4 CH4(v13) CH4(v24) C2H2 C2H2(v13) C2H2(v2) C2H2(v5) C2H3 C2H4 C2H4(v1) C2H4(v2) C2H5 C2H6 C2H6(v13) C2H6(v24) C3H6 C3H6(v) C3H7 C3H8 C3H8(v1) C3H8(v2)
END

REACTIONS
# Gas Constant
$ double precision, parameter :: R = 8.314d-3

# Compensation Parameters
$ double precision, parameter :: f0 = 1.1595d-1
$ double precision, parameter :: f1 = 7.8355d+1
$ double precision, parameter :: f2 = 5.0577d+2
$ double precision, parameter :: f3 = 1.6991d+1
$ double precision, parameter :: f4 = 4.9470d-2
$ double precision, parameter :: f5 = 3.6830d-3
$ double precision, parameter :: f6 = 1.2627d0
$ double precision, parameter :: f7 = 2.8273d-2
$ double precision, parameter :: f8 = 5.3851d-1
$ double precision, parameter :: f9 = 1.5265d-6
$ double precision, parameter :: f10 = 3.2614d+1
$ double precision, parameter :: f11 = 2.7334d0
$ double precision, parameter :: f12 = 4.5020d-4
$ double precision, parameter :: f13 = 3.4513d-2
$ double precision, parameter :: f14 = 1.0321d-5
$ double precision, parameter :: f15 = 6.8131d-2
$ double precision, parameter :: f16 = 6.1005d-7
$ double precision, parameter :: f17 = 5.3372d-5
$ double precision, parameter :: f18 = 4.7309d-2
$ double precision, parameter :: f19 = 3.2996d-5
$ double precision, parameter :: f20 = 7.0483d-1
$ double precision, parameter :: f21 = 2.2429d-6
$ double precision, parameter :: f22 = 2.7355d-2
$ double precision, parameter :: f23 = 7.2937d-4
$ double precision, parameter :: f24 = 1.1988d-8
$ double precision, parameter :: f25 = 7.1742d-4
$ double precision, parameter :: f26 = 9.5154d0
$ double precision, parameter :: f27 = 5.0566d-8
$ double precision, parameter :: f28 = 1.7075d0
$ double precision, parameter :: f29 = 4.0154d-5
$ double precision, parameter :: f30 = 1.0196d0
$ double precision, parameter :: f31 = 5.3382d+1
$ double precision, parameter :: f32 = 2.3360d-5
$ double precision, parameter :: f33 = 1.2526d+1
$ double precision, parameter :: f34 = 4.6560d-7
$ double precision, parameter :: f35 = 6.1177d+2
$ double precision, parameter :: f36 = 1.6118d0
$ double precision, parameter :: f37 = 1.9355d+1
$ double precision, parameter :: f38 = 3.7078d-2
$ double precision, parameter :: f39 = 1.4071d0
$ double precision, parameter :: f40 = 1.2183d-4
$ double precision, parameter :: f41 = 1.6391d-3
$ double precision, parameter :: f42 = 8.7127d+2
$ double precision, parameter :: f43 = 6.0084d0
$ double precision, parameter :: f44 = 3.9035d-1
$ double precision, parameter :: f45 = 2.4875d-2
$ double precision, parameter :: f46 = 2.6757d-5
$ double precision, parameter :: f47 = 2.6752d-2
$ double precision, parameter :: f48 = 3.9285d-4
$ double precision, parameter :: f49 = 2.9133d-3
$ double precision, parameter :: f50 = 1.0130d-4
$ double precision, parameter :: f51 = 1.6088d0
$ double precision, parameter :: f52 = 4.2167d-8
$ double precision, parameter :: f53 = 2.9826d-3
$ double precision, parameter :: f54 = 8.7109d-5
$ double precision, parameter :: f55 = 6.2182d-6
$ double precision, parameter :: f56 = 3.3977d-1
$ double precision, parameter :: f57 = 6.9235d0
$ double precision, parameter :: f58 = 1.0862d-4
$ double precision, parameter :: f59 = 4.7803d-8
$ double precision, parameter :: f60 = 1.4125d-6
$ double precision, parameter :: f61 = 1.1963d-6
$ double precision, parameter :: f62 = 3.6119d0
$ double precision, parameter :: f63 = 1.5197d-7
$ double precision, parameter :: f64 = 4.1301d-3
$ double precision, parameter :: f65 = 1.7630d-4
$ double precision, parameter :: f66 = 3.7417d+2
$ double precision, parameter :: f67 = 3.8825d-8
$ double precision, parameter :: f68 = 1.7762d+2
$ double precision, parameter :: f69 = 1.5279d-7
$ double precision, parameter :: f70 = 2.2383d0
$ double precision, parameter :: f71 = 6.3499d+1
$ double precision, parameter :: f72 = 4.9169d+2
$ double precision, parameter :: f73 = 3.6868d-7
$ double precision, parameter :: f74 = 9.1274d-6
$ double precision, parameter :: f75 = 1.1746d-2
$ double precision, parameter :: f76 = 1.2616d-3
$ double precision, parameter :: f77 = 9.1213d-1
$ double precision, parameter :: f78 = 1.3585d-1
$ double precision, parameter :: f79 = 7.8073d-5
$ double precision, parameter :: f80 = 8.5739d-5
$ double precision, parameter :: f81 = 2.3550d-3
$ double precision, parameter :: f82 = 1.0691d-6
$ double precision, parameter :: f83 = 2.2583d+2
$ double precision, parameter :: f84 = 7.4481d0
$ double precision, parameter :: f85 = 2.8966d-7
$ double precision, parameter :: f86 = 6.0921d-2
$ double precision, parameter :: f87 = 7.1497d+2
$ double precision, parameter :: f88 = 6.2452d+1
$ double precision, parameter :: f89 = 6.6629d-6
$ double precision, parameter :: f90 = 1.1684d0
$ double precision, parameter :: f91 = 1.9542d-8
$ double precision, parameter :: f92 = 4.5042d-3
$ double precision, parameter :: f93 = 4.9787d-7
$ double precision, parameter :: f94 = 1.1888d+2
$ double precision, parameter :: f95 = 1.5582d-6
$ double precision, parameter :: f96 = 4.8644d+2
$ double precision, parameter :: f97 = 1.5356d0
$ double precision, parameter :: f98 = 1.2048d-7
$ double precision, parameter :: f99 = 2.8049d0
$ double precision, parameter :: f100 = 9.1240d-1
$ double precision, parameter :: f101 = 1.5632d-1
$ double precision, parameter :: f102 = 1.5729d-5
$ double precision, parameter :: f103 = 8.1809d-2
$ double precision, parameter :: f104 = 6.4431d-2
$ double precision, parameter :: f105 = 1.8311d+2
$ double precision, parameter :: f106 = 9.0550d-5
$ double precision, parameter :: f107 = 5.8756d-3
$ double precision, parameter :: f108 = 7.5843d-8
$ double precision, parameter :: f109 = 3.7951d-3
$ double precision, parameter :: f110 = 3.2804d-1
$ double precision, parameter :: f111 = 2.2673d-4
$ double precision, parameter :: f112 = 7.9047d0
$ double precision, parameter :: f113 = 3.1829d-5
$ double precision, parameter :: f114 = 7.2730d0
$ double precision, parameter :: f115 = 1.6316d0
$ double precision, parameter :: f116 = 1.6407d-2
$ double precision, parameter :: f117 = 4.2550d-3
$ double precision, parameter :: f118 = 5.1319d+1
$ double precision, parameter :: f119 = 2.2370d-5
$ double precision, parameter :: f120 = 1.6505d+1
$ double precision, parameter :: f121 = 1.9346d+1
$ double precision, parameter :: f122 = 3.5695d-7
$ double precision, parameter :: f123 = 9.6740d-5
$ double precision, parameter :: f124 = 1.2761d0
$ double precision, parameter :: f125 = 5.4976d-4
$ double precision, parameter :: f126 = 1.1100d-1
$ double precision, parameter :: f127 = 1.5331d+1
$ double precision, parameter :: f128 = 1.7393d-4
$ double precision, parameter :: f129 = 2.1862d-7
$ double precision, parameter :: f130 = 3.6105d-7
$ double precision, parameter :: f131 = 2.8137d-5
$ double precision, parameter :: f132 = 2.1019d-4
$ double precision, parameter :: f133 = 7.3342d-4
$ double precision, parameter :: f134 = 1.8651d0
$ double precision, parameter :: f135 = 2.2200d-2
$ double precision, parameter :: f136 = 6.4504d+1
$ double precision, parameter :: f137 = 9.6208d-5
$ double precision, parameter :: f138 = 2.3357d+2
$ double precision, parameter :: f139 = 7.7164d-2
$ double precision, parameter :: f140 = 4.8956d-4
$ double precision, parameter :: f141 = 5.7056d+1
$ double precision, parameter :: f142 = 1.5022d-5
$ double precision, parameter :: f143 = 1.2243d-7
$ double precision, parameter :: f144 = 7.3629d-1
$ double precision, parameter :: f145 = 4.2360d-4
$ double precision, parameter :: f146 = 8.4310d-1
$ double precision, parameter :: f147 = 1.8339d-4
$ double precision, parameter :: f148 = 1.4345d+2
$ double precision, parameter :: f149 = 7.0097d-1
$ double precision, parameter :: f150 = 8.0677d-3
$ double precision, parameter :: f151 = 2.6882d-8
$ double precision, parameter :: f152 = 2.5774d+2
$ double precision, parameter :: f153 = 2.0755d0
$ double precision, parameter :: f154 = 2.5110d-3
$ double precision, parameter :: f155 = 1.4925d+2
$ double precision, parameter :: f156 = 1.2152d-7
$ double precision, parameter :: f157 = 4.0978d-2
$ double precision, parameter :: f158 = 3.7077d-2
$ double precision, parameter :: f159 = 3.8562d-2
$ double precision, parameter :: f160 = 7.3921d-5
$ double precision, parameter :: f161 = 1.5545d+1
$ double precision, parameter :: f162 = 1.7998d-3
$ double precision, parameter :: f163 = 8.8916d+1
$ double precision, parameter :: f164 = 2.5513d-4
$ double precision, parameter :: f165 = 7.0742d-3
$ double precision, parameter :: f166 = 7.7365d+2
$ double precision, parameter :: f167 = 2.7001d+2
$ double precision, parameter :: f168 = 4.5563d-1
$ double precision, parameter :: f169 = 2.9643d-3
$ double precision, parameter :: f170 = 1.0784d+1
$ double precision, parameter :: f171 = 2.5823d0
$ double precision, parameter :: f172 = 1.4243d+2
$ double precision, parameter :: f173 = 3.6317d-5
$ double precision, parameter :: f174 = 8.0941d-8
$ double precision, parameter :: f175 = 5.6086d-7
$ double precision, parameter :: f176 = 6.0519d-7
$ double precision, parameter :: f177 = 1.9906d-2
$ double precision, parameter :: f178 = 1.2059d+1
$ double precision, parameter :: f179 = 1.0322d-5
$ double precision, parameter :: f180 = 5.9302d0
$ double precision, parameter :: f181 = 5.2397d-3
$ double precision, parameter :: f182 = 9.0768d+1
$ double precision, parameter :: f183 = 7.9441d-1
$ double precision, parameter :: f184 = 2.9823d-4
$ double precision, parameter :: f185 = 5.9498d+1
$ double precision, parameter :: f186 = 5.9223d-3
$ double precision, parameter :: f187 = 1.5298d-8
$ double precision, parameter :: f188 = 4.7756d-3
$ double precision, parameter :: f189 = 2.2578d-2
$ double precision, parameter :: f190 = 2.9196d+1
$ double precision, parameter :: f191 = 8.3843d-6
$ double precision, parameter :: f192 = 7.3007d-4
$ double precision, parameter :: f193 = 4.4725d-2
$ double precision, parameter :: f194 = 1.3777d0
$ double precision, parameter :: f195 = 6.1271d-8
$ double precision, parameter :: f196 = 7.2683d+2
$ double precision, parameter :: f197 = 8.9865d-4
$ double precision, parameter :: f198 = 6.8109d-6
$ double precision, parameter :: f199 = 6.0140d-3
$ double precision, parameter :: f200 = 5.9518d-3
$ double precision, parameter :: f201 = 2.8601d-8
$ double precision, parameter :: f202 = 1.5312d0
$ double precision, parameter :: f203 = 2.5808d-6
$ double precision, parameter :: f204 = 1.3772d0
$ double precision, parameter :: f205 = 7.9369d0
$ double precision, parameter :: f206 = 1.9638d-1
$ double precision, parameter :: f207 = 1.3779d-7
$ double precision, parameter :: f208 = 2.5010d-5
$ double precision, parameter :: f209 = 1.5301d-8
$ double precision, parameter :: f210 = 8.1531d-1
$ double precision, parameter :: f211 = 5.0876d-6
$ double precision, parameter :: f212 = 2.4948d0
$ double precision, parameter :: f213 = 2.6080d+2
$ double precision, parameter :: f214 = 1.8377d-3
$ double precision, parameter :: f215 = 2.3585d-1
$ double precision, parameter :: f216 = 1.3605d-3
$ double precision, parameter :: f217 = 2.5818d+1
$ double precision, parameter :: f218 = 3.9636d+2
$ double precision, parameter :: f219 = 1.7752d-4
$ double precision, parameter :: f220 = 1.2356d-5
$ double precision, parameter :: f221 = 9.7980d-7
$ double precision, parameter :: f222 = 5.0058d0
$ double precision, parameter :: f223 = 2.2190d-6
$ double precision, parameter :: f224 = 1.0381d0
$ double precision, parameter :: f225 = 3.0819d-7
$ double precision, parameter :: f226 = 4.6840d+1
$ double precision, parameter :: f227 = 4.1800d-4
$ double precision, parameter :: f228 = 6.7387d+1
$ double precision, parameter :: f229 = 2.8121d+2
$ double precision, parameter :: f230 = 2.8770d-4
$ double precision, parameter :: f231 = 2.7339d-8
$ double precision, parameter :: f232 = 9.5261d0
$ double precision, parameter :: f233 = 3.4675d-6
$ double precision, parameter :: f234 = 6.5145d-1
$ double precision, parameter :: f235 = 3.0695d-3
$ double precision, parameter :: f236 = 1.3939d-4
$ double precision, parameter :: f237 = 6.4202d-3
$ double precision, parameter :: f238 = 3.4453d+1
$ double precision, parameter :: f239 = 1.1024d0
$ double precision, parameter :: f240 = 1.2300d-2
$ double precision, parameter :: f241 = 2.9278d-4
$ double precision, parameter :: f242 = 6.8941d-7
$ double precision, parameter :: f243 = 2.0605d0
$ double precision, parameter :: f244 = 1.0740d-1
$ double precision, parameter :: f245 = 2.4747d-3
$ double precision, parameter :: f246 = 2.8511d-5
$ double precision, parameter :: f247 = 2.7041d-3
$ double precision, parameter :: f248 = 5.9695d-1
$ double precision, parameter :: f249 = 7.4114d-3
$ double precision, parameter :: f250 = 1.7769d-1
$ double precision, parameter :: f251 = 3.2597d0
$ double precision, parameter :: f252 = 1.5588d0
$ double precision, parameter :: f253 = 4.2152d-5
$ double precision, parameter :: f254 = 3.2749d-5
$ double precision, parameter :: f255 = 2.3496d-8
$ double precision, parameter :: f256 = 7.4063d+1
$ double precision, parameter :: f257 = 2.9339d+2
$ double precision, parameter :: f258 = 7.6415d-5
$ double precision, parameter :: f259 = 1.0351d-7
$ double precision, parameter :: f260 = 3.7446d0
$ double precision, parameter :: f261 = 4.6424d0
$ double precision, parameter :: f262 = 4.2965d-8
$ double precision, parameter :: f263 = 2.2467d+2
$ double precision, parameter :: f264 = 2.3716d-2
$ double precision, parameter :: f265 = 4.1832d-4
$ double precision, parameter :: f266 = 3.4186d+1
$ double precision, parameter :: f267 = 3.2132d-3
$ double precision, parameter :: f268 = 1.0456d+1
$ double precision, parameter :: f269 = 9.4985d-2
$ double precision, parameter :: f270 = 6.5468d-2
$ double precision, parameter :: f271 = 9.9337d-7
$ double precision, parameter :: f272 = 3.2313d+1
$ double precision, parameter :: f273 = 1.9966d-8
$ double precision, parameter :: f274 = 1.0609d-8
$ double precision, parameter :: f275 = 2.3329d-5
$ double precision, parameter :: f276 = 3.1394d-3
$ double precision, parameter :: f277 = 3.7960d-7
$ double precision, parameter :: f278 = 3.8335d0
$ double precision, parameter :: f279 = 1.3004d-3
$ double precision, parameter :: f280 = 5.5085d-3
$ double precision, parameter :: f281 = 3.7253d-4
$ double precision, parameter :: f282 = 1.3158d-8
$ double precision, parameter :: f283 = 1.1775d-7
$ double precision, parameter :: f284 = 6.8026d-6
$ double precision, parameter :: f285 = 1.1629d-6
$ double precision, parameter :: f286 = 8.4418d+2
$ double precision, parameter :: f287 = 1.5591d+2
$ double precision, parameter :: f288 = 1.3466d0
$ double precision, parameter :: f289 = 1.5863d-3
$ double precision, parameter :: f290 = 2.1950d-1
$ double precision, parameter :: f291 = 2.0988d-7
$ double precision, parameter :: f292 = 2.4792d-8
$ double precision, parameter :: f293 = 1.9728d-3
$ double precision, parameter :: f294 = 1.4466d-8
$ double precision, parameter :: f295 = 2.1767d-2
$ double precision, parameter :: f296 = 3.7767d-4
$ double precision, parameter :: f297 = 3.3813d0
$ double precision, parameter :: f298 = 2.4952d-1
$ double precision, parameter :: f299 = 5.8165d0
$ double precision, parameter :: f300 = 8.8964d-4
$ double precision, parameter :: f301 = 1.0721d+2
$ double precision, parameter :: f302 = 8.8361d-2
$ double precision, parameter :: f303 = 5.0733d-2
$ double precision, parameter :: f304 = 3.4763d-3
$ double precision, parameter :: f305 = 9.9014d-4
$ double precision, parameter :: f306 = 5.0489d-8
$ double precision, parameter :: f307 = 2.8888d-5
$ double precision, parameter :: f308 = 9.8601d-1
$ double precision, parameter :: f309 = 7.9447d-8
$ double precision, parameter :: f310 = 5.6185d0
$ double precision, parameter :: f311 = 4.8790d-6
$ double precision, parameter :: f312 = 6.4472d-8
$ double precision, parameter :: f313 = 1.2129d-8
$ double precision, parameter :: f314 = 6.4451d-2
$ double precision, parameter :: f315 = 2.1911d+1

# Electron Collision Reaction
e + CH4 => e + CH4(v24)		! f0 * Bolsig+ CH4 -> CH4(v24)
e + CH4 => e + CH4(v13)		! f1 * Bolsig+ CH4 -> CH4(v13)
e + C2H6 => e + C2H6(v24)		! f2 * Bolsig+ C2H6 -> C2H6(v24)
e + C2H6 => e + C2H6(v13)		! f3 * Bolsig+ C2H6 -> C2H6(v13)
e + C2H4 => e + C2H4(v1)		! f4 * Bolsig+ C2H4 -> C2H4(v1)
e + C2H4 => e + C2H4(v2)		! f5 * Bolsig+ C2H4 -> C2H4(v2)
e + C2H2 => e + C2H2(v5)		! f6 * Bolsig+ C2H2 -> C2H2(v5)
e + C2H2 => e + C2H2(v2)		! f7 * Bolsig+ C2H2 -> C2H2(v2)
e + C2H2 => e + C2H2(v13)		! f8 * Bolsig+ C2H2 -> C2H2(v13)
e + C3H8 => e + C3H8(v1)		! f9 * Bolsig+ C3H8 -> C3H8(v1)
e + C3H8 => e + C3H8(v2)		! f10 * Bolsig+ C3H8 -> C3H8(v2)
e + C3H6 => e + C3H6(v)		! f11 * Bolsig+ C3H6 -> C3H6(v)
e + CH4 => e + CH3 + H		! f12 * Bolsig+ CH4 -> CH3 H
e + CH4(v24) => e + CH3 + H		! f12 * Bolsig+ CH4(v24) -> CH3 H
e + CH4(v13) => e + CH3 + H		! f12 * Bolsig+ CH4(v13) -> CH3 H
e + CH4 => e + CH2 + H2		! f13 * Bolsig+ CH4 -> CH2 H2
e + CH4(v24) => e + CH2 + H2		! f13 * Bolsig+ CH4(v24) -> CH2 H2
e + CH4(v13) => e + CH2 + H2		! f13 * Bolsig+ CH4(v13) -> CH2 H2
e + CH4 => e + CH + H2 + H		! f14 * Bolsig+ CH4 -> CH H2 H
e + CH4(v24) => e + CH + H2 + H		! f14 * Bolsig+ CH4(v24) -> CH H2 H
e + CH4(v13) => e + CH + H2 + H		! f14 * Bolsig+ CH4(v13) -> CH H2 H
e + CH4 => e + C + H2 + H2		! f15 * Bolsig+ CH4 -> C H2 H2
e + CH4(v24) => e + C + H2 + H2		! f15 * Bolsig+ CH4(v24) -> C H2 H2
e + CH4(v13) => e + C + H2 + H2		! f15 * Bolsig+ CH4(v13) -> C H2 H2
e + CH3 => e + CH2 + H		! f16 * Bolsig+ CH3 -> CH2 H
e + CH3 => e + CH + H2		! f17 * Bolsig+ CH3 -> CH H2
e + CH3 => e + C + H2 + H		! f18 * Bolsig+ CH3 -> C H2 H
e + CH2 => e + CH + H		! f19 * Bolsig+ CH2 -> CH H
e + CH2 => e + C + H2		! f20 * Bolsig+ CH2 -> C H2
e + CH2 => e + C + H + H		! f21 * Bolsig+ CH2 -> C H H
e + CH => e + C + H		! f22 * Bolsig+ CH -> C H
e + CH4 => e + e + CH4^+		! f23 * Bolsig+ CH4 -> CH4^+
e + CH4(v24) => e + e + CH4^+		! f23 * Bolsig+ CH4(v24) -> CH4^+
e + CH4(v13) => e + e + CH4^+		! f23 * Bolsig+ CH4(v13) -> CH4^+
e + CH4 => e + e + H + CH3^+		! f24 * Bolsig+ CH4 -> H CH3^+
e + CH4(v24) => e + e + H + CH3^+		! f24 * Bolsig+ CH4(v24) -> H CH3^+
e + CH4(v13) => e + e + H + CH3^+		! f24 * Bolsig+ CH4(v13) -> H CH3^+
e + CH4 => e + e + H2 + CH2^+		! f25 * Bolsig+ CH4 -> H2 CH2^+
e + CH4(v24) => e + e + H2 + CH2^+		! f25 * Bolsig+ CH4(v24) -> H2 CH2^+
e + CH4(v13) => e + e + H2 + CH2^+		! f25 * Bolsig+ CH4(v13) -> H2 CH2^+
e + CH4 => e + e + H2 + H + CH^+		! f26 * Bolsig+ CH4 -> H2 H CH^+
e + CH4(v24) => e + e + H2 + H + CH^+		! f26 * Bolsig+ CH4(v24) -> H2 H CH^+
e + CH4(v13) => e + e + H2 + H + CH^+		! f26 * Bolsig+ CH4(v13) -> H2 H CH^+
e + CH3 => e + e + CH3^+		! f27 * Bolsig+ CH3 -> CH3^+
e + CH3 => e + e + H + CH2^+		! f28 * Bolsig+ CH3 -> H CH2^+
e + CH3 => e + e + H2 + CH^+		! f29 * Bolsig+ CH3 -> H2 CH^+
e + CH2 => e + e + CH2^+		! f30 * Bolsig+ CH2 -> CH2^+
e + CH2 => e + e + H + CH^+		! f31 * Bolsig+ CH2 -> H CH^+
e + CH => e + e + CH^+		! f32 * Bolsig+ CH -> CH^+
e + C2H6 => e + C2H5 + H		! f33 * Bolsig+ C2H6 -> C2H5 H
e + C2H6(v24) => e + C2H5 + H		! f33 * Bolsig+ C2H6(v24) -> C2H5 H
e + C2H6(v13) => e + C2H5 + H		! f33 * Bolsig+ C2H6(v13) -> C2H5 H
e + C2H6 => e + C2H4 + H2		! f34 * Bolsig+ C2H6 -> C2H4 H2
e + C2H6(v24) => e + C2H4 + H2		! f34 * Bolsig+ C2H6(v24) -> C2H4 H2
e + C2H6(v13) => e + C2H4 + H2		! f34 * Bolsig+ C2H6(v13) -> C2H4 H2
e + C2H6 => e + C2H3 + H2 + H		! f35 * Bolsig+ C2H6 -> C2H3 H2 H
e + C2H6(v24) => e + C2H3 + H2 + H		! f35 * Bolsig+ C2H6(v24) -> C2H3 H2 H
e + C2H6(v13) => e + C2H3 + H2 + H		! f35 * Bolsig+ C2H6(v13) -> C2H3 H2 H
e + C2H6 => e + C2H2 + H2 + H2		! f36 * Bolsig+ C2H6 -> C2H2 H2 H2
e + C2H6(v24) => e + C2H2 + H2 + H2		! f36 * Bolsig+ C2H6(v24) -> C2H2 H2 H2
e + C2H6(v13) => e + C2H2 + H2 + H2		! f36 * Bolsig+ C2H6(v13) -> C2H2 H2 H2
e + C2H6 => e + CH4 + CH2		! f37 * Bolsig+ C2H6 -> CH4 CH2
e + C2H6(v24) => e + CH4 + CH2		! f37 * Bolsig+ C2H6(v24) -> CH4 CH2
e + C2H6(v13) => e + CH4 + CH2		! f37 * Bolsig+ C2H6(v13) -> CH4 CH2
e + C2H6 => e + CH3 + CH3		! f38 * Bolsig+ C2H6 -> CH3 CH3
e + C2H6(v24) => e + CH3 + CH3		! f38 * Bolsig+ C2H6(v24) -> CH3 CH3
e + C2H6(v13) => e + CH3 + CH3		! f38 * Bolsig+ C2H6(v13) -> CH3 CH3
e + C2H5 => e + C2H4 + H		! f39 * Bolsig+ C2H5 -> C2H4 H
e + C2H5 => e + C2H3 + H2		! f40 * Bolsig+ C2H5 -> C2H3 H2
e + C2H5 => e + C2H3 + H + H		! f41 * Bolsig+ C2H5 -> C2H3 H H
e + C2H5 => e + C2H2 + H2 + H		! f42 * Bolsig+ C2H5 -> C2H2 H2 H
e + C2H5 => e + CH4 + CH		! f43 * Bolsig+ C2H5 -> CH4 CH
e + C2H5 => e + CH3 + CH2		! f44 * Bolsig+ C2H5 -> CH3 CH2
e + C2H4 => e + C2H3 + H		! f45 * Bolsig+ C2H4 -> C2H3 H
e + C2H4(v1) => e + C2H3 + H		! f45 * Bolsig+ C2H4(v1) -> C2H3 H
e + C2H4(v2) => e + C2H3 + H		! f45 * Bolsig+ C2H4(v2) -> C2H3 H
e + C2H4 => e + C2H2 + H2		! f46 * Bolsig+ C2H4 -> C2H2 H2
e + C2H4(v1) => e + C2H2 + H2		! f46 * Bolsig+ C2H4(v1) -> C2H2 H2
e + C2H4(v2) => e + C2H2 + H2		! f46 * Bolsig+ C2H4(v2) -> C2H2 H2
e + C2H4 => e + C2H2 + H + H		! f47 * Bolsig+ C2H4 -> C2H2 H H
e + C2H4(v1) => e + C2H2 + H + H		! f47 * Bolsig+ C2H4(v1) -> C2H2 H H
e + C2H4(v2) => e + C2H2 + H + H		! f47 * Bolsig+ C2H4(v2) -> C2H2 H H
e + C2H4 => e + CH3 + CH		! f48 * Bolsig+ C2H4 -> CH3 CH
e + C2H4(v1) => e + CH3 + CH		! f48 * Bolsig+ C2H4(v1) -> CH3 CH
e + C2H4(v2) => e + CH3 + CH		! f48 * Bolsig+ C2H4(v2) -> CH3 CH
e + C2H4 => e + CH2 + CH2		! f49 * Bolsig+ C2H4 -> CH2 CH2
e + C2H4(v1) => e + CH2 + CH2		! f49 * Bolsig+ C2H4(v1) -> CH2 CH2
e + C2H4(v2) => e + CH2 + CH2		! f49 * Bolsig+ C2H4(v2) -> CH2 CH2
e + C2H3 => e + C2H2 + H		! f50 * Bolsig+ C2H3 -> C2H2 H
e + C2H3 => e + CH2 + CH		! f51 * Bolsig+ C2H3 -> CH2 CH
e + C2H2 => e + CH + CH		! f52 * Bolsig+ C2H2 -> CH CH
e + C2H2(v5) => e + CH + CH		! f52 * Bolsig+ C2H2(v5) -> CH CH
e + C2H2(v2) => e + CH + CH		! f52 * Bolsig+ C2H2(v2) -> CH CH
e + C2H2(v13) => e + CH + CH		! f52 * Bolsig+ C2H2(v13) -> CH CH
e + C2H6 => e + e + C2H6^+		! f53 * Bolsig+ C2H6 -> C2H6^+
e + C2H6(v24) => e + e + C2H6^+		! f53 * Bolsig+ C2H6(v24) -> C2H6^+
e + C2H6(v13) => e + e + C2H6^+		! f53 * Bolsig+ C2H6(v13) -> C2H6^+
e + C2H6 => e + e + H + C2H5^+		! f54 * Bolsig+ C2H6 -> H C2H5^+
e + C2H6(v24) => e + e + H + C2H5^+		! f54 * Bolsig+ C2H6(v24) -> H C2H5^+
e + C2H6(v13) => e + e + H + C2H5^+		! f54 * Bolsig+ C2H6(v13) -> H C2H5^+
e + C2H6 => e + e + H2 + C2H4^+		! f55 * Bolsig+ C2H6 -> H2 C2H4^+
e + C2H6(v24) => e + e + H2 + C2H4^+		! f55 * Bolsig+ C2H6(v24) -> H2 C2H4^+
e + C2H6(v13) => e + e + H2 + C2H4^+		! f55 * Bolsig+ C2H6(v13) -> H2 C2H4^+
e + C2H6 => e + e + H2 + H + C2H3^+		! f56 * Bolsig+ C2H6 -> H2 H C2H3^+
e + C2H6(v24) => e + e + H2 + H + C2H3^+		! f56 * Bolsig+ C2H6(v24) -> H2 H C2H3^+
e + C2H6(v13) => e + e + H2 + H + C2H3^+		! f56 * Bolsig+ C2H6(v13) -> H2 H C2H3^+
e + C2H6 => e + e + H2 + H2 + C2H2^+		! f57 * Bolsig+ C2H6 -> H2 H2 C2H2^+
e + C2H6(v24) => e + e + H2 + H2 + C2H2^+		! f57 * Bolsig+ C2H6(v24) -> H2 H2 C2H2^+
e + C2H6(v13) => e + e + H2 + H2 + C2H2^+		! f57 * Bolsig+ C2H6(v13) -> H2 H2 C2H2^+
e + C2H6 => e + e + CH3 + CH3^+		! f58 * Bolsig+ C2H6 -> CH3 CH3^+
e + C2H6(v24) => e + e + CH3 + CH3^+		! f58 * Bolsig+ C2H6(v24) -> CH3 CH3^+
e + C2H6(v13) => e + e + CH3 + CH3^+		! f58 * Bolsig+ C2H6(v13) -> CH3 CH3^+
e + C2H6 => e + e + CH4 + CH2^+		! f59 * Bolsig+ C2H6 -> CH4 CH2^+
e + C2H6(v24) => e + e + CH4 + CH2^+		! f59 * Bolsig+ C2H6(v24) -> CH4 CH2^+
e + C2H6(v13) => e + e + CH4 + CH2^+		! f59 * Bolsig+ C2H6(v13) -> CH4 CH2^+
e + C2H5 => e + e + C2H5^+		! f60 * Bolsig+ C2H5 -> C2H5^+
e + C2H5 => e + e + H + C2H4^+		! f61 * Bolsig+ C2H5 -> H C2H4^+
e + C2H5 => e + e + H2 + C2H3^+		! f62 * Bolsig+ C2H5 -> H2 C2H3^+
e + C2H5 => e + e + H2 + H + C2H2^+		! f63 * Bolsig+ C2H5 -> H2 H C2H2^+
e + C2H5 => e + e + CH2 + CH3^+		! f64 * Bolsig+ C2H5 -> CH2 CH3^+
e + C2H5 => e + e + CH3 + CH2^+		! f65 * Bolsig+ C2H5 -> CH3 CH2^+
e + C2H5 => e + e + CH4 + CH^+		! f66 * Bolsig+ C2H5 -> CH4 CH^+
e + C2H4 => e + e + C2H4^+		! f67 * Bolsig+ C2H4 -> C2H4^+
e + C2H4(v1) => e + e + C2H4^+		! f67 * Bolsig+ C2H4(v1) -> C2H4^+
e + C2H4(v2) => e + e + C2H4^+		! f67 * Bolsig+ C2H4(v2) -> C2H4^+
e + C2H4 => e + e + H + C2H3^+		! f68 * Bolsig+ C2H4 -> H C2H3^+
e + C2H4(v1) => e + e + H + C2H3^+		! f68 * Bolsig+ C2H4(v1) -> H C2H3^+
e + C2H4(v2) => e + e + H + C2H3^+		! f68 * Bolsig+ C2H4(v2) -> H C2H3^+
e + C2H4 => e + e + CH + CH3^+		! f69 * Bolsig+ C2H4 -> CH CH3^+
e + C2H4(v1) => e + e + CH + CH3^+		! f69 * Bolsig+ C2H4(v1) -> CH CH3^+
e + C2H4(v2) => e + e + CH + CH3^+		! f69 * Bolsig+ C2H4(v2) -> CH CH3^+
e + C2H4 => e + e + CH2 + CH2^+		! f70 * Bolsig+ C2H4 -> CH2 CH2^+
e + C2H4(v1) => e + e + CH2 + CH2^+		! f70 * Bolsig+ C2H4(v1) -> CH2 CH2^+
e + C2H4(v2) => e + e + CH2 + CH2^+		! f70 * Bolsig+ C2H4(v2) -> CH2 CH2^+
e + C2H4 => e + e + CH3 + CH^+		! f71 * Bolsig+ C2H4 -> CH3 CH^+
e + C2H4(v1) => e + e + CH3 + CH^+		! f71 * Bolsig+ C2H4(v1) -> CH3 CH^+
e + C2H4(v2) => e + e + CH3 + CH^+		! f71 * Bolsig+ C2H4(v2) -> CH3 CH^+
e + C2H3 => e + e + C2H3^+		! f72 * Bolsig+ C2H3 -> C2H3^+
e + C2H3 => e + e + H + C2H2^+		! f73 * Bolsig+ C2H3 -> H C2H2^+
e + C2H3 => e + e + CH + CH2^+		! f74 * Bolsig+ C2H3 -> CH CH2^+
e + C2H3 => e + e + CH2 + CH^+		! f75 * Bolsig+ C2H3 -> CH2 CH^+
e + C2H3 => e + e + C2H2 + H^+		! f76 * Bolsig+ C2H3 -> C2H2 H^+
e + C2H2 => e + e + C2H2^+		! f77 * Bolsig+ C2H2 -> C2H2^+
e + C2H2(v5) => e + e + C2H2^+		! f77 * Bolsig+ C2H2(v5) -> C2H2^+
e + C2H2(v2) => e + e + C2H2^+		! f77 * Bolsig+ C2H2(v2) -> C2H2^+
e + C2H2(v13) => e + e + C2H2^+		! f77 * Bolsig+ C2H2(v13) -> C2H2^+
e + C2H2 => e + e + CH + CH^+		! f78 * Bolsig+ C2H2 -> CH CH^+
e + C2H2(v5) => e + e + CH + CH^+		! f78 * Bolsig+ C2H2(v5) -> CH CH^+
e + C2H2(v2) => e + e + CH + CH^+		! f78 * Bolsig+ C2H2(v2) -> CH CH^+
e + C2H2(v13) => e + e + CH + CH^+		! f78 * Bolsig+ C2H2(v13) -> CH CH^+
e + C3H8 => e + C3H7 + H		! f79 * Bolsig+ C3H8 -> C3H7 H
e + C3H8(v1) => e + C3H7 + H		! f79 * Bolsig+ C3H8(v1) -> C3H7 H
e + C3H8(v2) => e + C3H7 + H		! f79 * Bolsig+ C3H8(v2) -> C3H7 H
e + C3H8 => e + C3H6 + H2		! f80 * Bolsig+ C3H8 -> C3H6 H2
e + C3H8(v1) => e + C3H6 + H2		! f80 * Bolsig+ C3H8(v1) -> C3H6 H2
e + C3H8(v2) => e + C3H6 + H2		! f80 * Bolsig+ C3H8(v2) -> C3H6 H2
e + C3H7 => e + C3H6 + H		! f81 * Bolsig+ C3H7 -> C3H6 H
e + C3H8 => e + e + C3H8^+		! f82 * Bolsig+ C3H8 -> C3H8^+
e + C3H8(v1) => e + e + C3H8^+		! f82 * Bolsig+ C3H8(v1) -> C3H8^+
e + C3H8(v2) => e + e + C3H8^+		! f82 * Bolsig+ C3H8(v2) -> C3H8^+
e + C3H8 => e + e + H + C3H7^+		! f83 * Bolsig+ C3H8 -> H C3H7^+
e + C3H8(v1) => e + e + H + C3H7^+		! f83 * Bolsig+ C3H8(v1) -> H C3H7^+
e + C3H8(v2) => e + e + H + C3H7^+		! f83 * Bolsig+ C3H8(v2) -> H C3H7^+
e + C3H8 => e + e + H2 + C3H6^+		! f84 * Bolsig+ C3H8 -> H2 C3H6^+
e + C3H8(v1) => e + e + H2 + C3H6^+		! f84 * Bolsig+ C3H8(v1) -> H2 C3H6^+
e + C3H8(v2) => e + e + H2 + C3H6^+		! f84 * Bolsig+ C3H8(v2) -> H2 C3H6^+
e + C3H7 => e + e + C3H7^+		! f85 * Bolsig+ C3H7 -> C3H7^+
e + C3H7 => e + e + H + C3H6^+		! f86 * Bolsig+ C3H7 -> H C3H6^+
e + C3H6 => e + e + C3H6^+		! f87 * Bolsig+ C3H6 -> C3H6^+
e + C3H6(v) => e + e + C3H6^+		! f87 * Bolsig+ C3H6(v) -> C3H6^+
e + C3H6 => e + C2H2 + CH4		! f88 * Bolsig+ C3H6 -> C2H2 CH4
e + C3H6(v) => e + C2H2 + CH4		! f88 * Bolsig+ C3H6(v) -> C2H2 CH4
e + C3H6 => e + e + C2H2 + CH4^+		! f89 * Bolsig+ C3H6 -> C2H2 CH4^+
e + C3H6(v) => e + e + C2H2 + CH4^+		! f89 * Bolsig+ C3H6(v) -> C2H2 CH4^+

# Ion Recombination Reaction
e + e + CH^+ => e + CH		! f90 * 1.00d0
e + e + CH2^+ => e + CH2		! f91 * 1.00d0
e + e + CH3^+ => e + CH3		! f92 * 1.00d0
e + e + CH4^+ => e + CH4		! f93 * 1.00d0
e + e + C2H2^+ => e + C2H2		! f94 * 1.00d0
e + e + C2H3^+ => e + C2H3		! f95 * 1.00d0
e + e + C2H4^+ => e + C2H4		! f96 * 1.00d0
e + e + C2H5^+ => e + C2H5		! f97 * 1.00d0
e + e + C2H6^+ => e + C2H6		! f98 * 1.00d0
e + e + C3H6^+ => e + C3H6		! f99 * 1.00d0
e + e + C3H7^+ => e + C3H7		! f100 * 1.00d0
e + e + C3H8^+ => e + C3H8		! f101 * 1.00d0

# Gas Phase Reaction
e + CH4^+ => CH3 + H		! f102 * 1.18d-08 * (300./Tgas)**0.5
e + CH4^+ => CH2 + H + H		! f103 * 2.42d-08 * (300./Tgas)**0.5
e + CH4^+ => CH + H2 + H		! f104 * 1.41d-08 * (300./Tgas)**0.5
e + CH3^+ => CH2 + H		! f105 * 2.25d-08 * (300./Tgas)**0.5
e + CH3^+ => CH + H2		! f106 * 7.88d-09 * (300./Tgas)**0.5
e + CH3^+ => CH + H + H		! f107 * 9.00d-09 * (300./Tgas)**0.5
e + CH3^+ => C + H2 + H		! f108 * 1.69d-08 * (300./Tgas)**0.5
e + CH2^+ => CH + H		! f109 * 1.00d-08 * (300./Tgas)**0.5
e + CH2^+ => C + H2		! f110 * 4.82d-09 * (300./Tgas)**0.5
e + CH2^+ => C + H + H		! f111 * 2.53d-08 * (300./Tgas)**0.5
e + CH^+ => C + H		! f112 * 3.23d-08 * (300./Tgas)**0.42
e + C2H6^+ => C2H5 + H		! f113 * 2.19d-08 * (300./Tgas)**0.71
e + C2H6^+ => C2H4 + H + H		! f114 * 3.36d-08 * (300./Tgas)**0.71
e + C2H5^+ => C2H4 + H		! f115 * 7.70d-09 * (300./Tgas)**0.71
e + C2H5^+ => C2H3 + H + H		! f116 * 1.92d-08 * (300./Tgas)**0.71
e + C2H5^+ => C2H2 + H2 + H		! f117 * 1.60d-08 * (300./Tgas)**0.71
e + C2H5^+ => C2H2 + H + H + H		! f118 * 8.98d-09 * (300./Tgas)**0.71
e + C2H5^+ => CH3 + CH2		! f119 * 9.62d-09 * (300./Tgas)**0.71
e + C2H4^+ => C2H3 + H		! f120 * 8.29d-09 * (300./Tgas)**0.71
e + C2H4^+ => C2H2 + H + H		! f121 * 3.43d-08 * (300./Tgas)**0.71
e + C2H3^+ => C2H2 + H		! f122 * 1.34d-08 * (300./Tgas)**0.71
e + C2H2^+ => CH + CH		! f123 * 4.87d-09 * (300./Tgas)**0.71
e + H2^+ => H + H		! f124 * 3.17d21/(6.022d23 * Te**4.5)
e + H3^+ => H + H2		! f125 * 3.17d21/(6.022d23 * Te**4.5)
H2 + H2^+ => H + H3^+		! f126 * 2.11d-09
C2H6 + CH4^+ => CH4 + H2 + C2H4^+		! f127 * 1.91d-9
C2H6(v24) + CH4^+ => CH4 + H2 + C2H4^+		! f127 * 1.91d-9
C2H6(v13) + CH4^+ => CH4 + H2 + C2H4^+		! f127 * 1.91d-9
C2H4 + CH4^+ => CH3 + C2H5^+		! f128 * 4.23d-10