ELEMENTS
e C H
END

SPECIES
e C CH CH^+ CH2 CH2^+ CH3 CH3^+ CH4 CH4(v13) CH4(v24) CH4^+ C2H2 C2H2(v13) C2H2(v2) C2H2(v5) C2H2^+ C2H3 C2H3^+ C2H4 C2H4(v1) C2H4(v2) C2H4^+ C2H5 C2H5^+
C2H6 C2H6(v13) C2H6(v24) C2H6^+ C3H5 C3H6 C3H6(v) C3H6^+ C3H7 C3H7^+ C3H8 C3H8(v1) C3H8(v2) C3H8^+ C4H9 C4H9H C2H C5H12 H H2 H2^+ H3^+ H^+
END

BOLSIG
CH CH2 CH3 CH4 CH4(v13) CH4(v24) C2H2 C2H2(v13) C2H2(v2) C2H2(v5) C2H3 C2H4 C2H4(v1) C2H4(v2) C2H5 C2H6 C2H6(v13) C2H6(v24) C3H6 C3H6(v) C3H7 C3H8 C3H8(v1) C3H8(v2)
END

REACTIONS
# Gas Constant
$ double precision, parameter :: R = 8.314d-3

# Compensation Parameters
$ double precision, parameter :: f0 = 9.2644d+1
$ double precision, parameter :: f1 = 3.8893d+2
$ double precision, parameter :: f2 = 9.9394d-5
$ double precision, parameter :: f3 = 6.5353d-7
$ double precision, parameter :: f4 = 9.0876d+1
$ double precision, parameter :: f5 = 5.1025d-3
$ double precision, parameter :: f6 = 1.3692d-8
$ double precision, parameter :: f7 = 3.3214d+1
$ double precision, parameter :: f8 = 5.6069d-8
$ double precision, parameter :: f9 = 5.0540d0
$ double precision, parameter :: f10 = 6.7490d-1
$ double precision, parameter :: f11 = 1.3607d-8
$ double precision, parameter :: f12 = 5.8863d-5
$ double precision, parameter :: f13 = 7.8199d-2
$ double precision, parameter :: f14 = 1.5022d+1
$ double precision, parameter :: f15 = 7.2656d-4
$ double precision, parameter :: f16 = 2.1189d0
$ double precision, parameter :: f17 = 1.8448d+1
$ double precision, parameter :: f18 = 5.6331d-2
$ double precision, parameter :: f19 = 7.1094d-3
$ double precision, parameter :: f20 = 6.1648d+2
$ double precision, parameter :: f21 = 1.8699d-5
$ double precision, parameter :: f22 = 7.2780d-7
$ double precision, parameter :: f23 = 8.2219d-5
$ double precision, parameter :: f24 = 1.0726d-4
$ double precision, parameter :: f25 = 3.2709d-3
$ double precision, parameter :: f26 = 6.6277d-6
$ double precision, parameter :: f27 = 2.1545d-7
$ double precision, parameter :: f28 = 2.6641d0
$ double precision, parameter :: f29 = 1.5476d-4
$ double precision, parameter :: f30 = 5.8553d-1
$ double precision, parameter :: f31 = 8.0512d-3
$ double precision, parameter :: f32 = 1.1819d-2
$ double precision, parameter :: f33 = 5.2909d-5
$ double precision, parameter :: f34 = 1.0546d-6
$ double precision, parameter :: f35 = 1.8001d+1
$ double precision, parameter :: f36 = 6.5500d-4
$ double precision, parameter :: f37 = 3.9701d-1
$ double precision, parameter :: f38 = 1.9067d-3
$ double precision, parameter :: f39 = 3.3038d+1
$ double precision, parameter :: f40 = 1.1324d-1
$ double precision, parameter :: f41 = 1.8626d-6
$ double precision, parameter :: f42 = 9.6364d0
$ double precision, parameter :: f43 = 3.2708d-6
$ double precision, parameter :: f44 = 1.3163d-5
$ double precision, parameter :: f45 = 8.1292d+2
$ double precision, parameter :: f46 = 8.1792d-4
$ double precision, parameter :: f47 = 1.1037d0
$ double precision, parameter :: f48 = 3.9617d-5
$ double precision, parameter :: f49 = 5.7424d-1
$ double precision, parameter :: f50 = 2.2504d-2
$ double precision, parameter :: f51 = 7.8295d-6
$ double precision, parameter :: f52 = 3.9358d+1
$ double precision, parameter :: f53 = 2.3603d-1
$ double precision, parameter :: f54 = 1.1198d-4
$ double precision, parameter :: f55 = 4.4388d-3
$ double precision, parameter :: f56 = 2.6506d+2
$ double precision, parameter :: f57 = 7.0812d-3
$ double precision, parameter :: f58 = 2.4104d-8
$ double precision, parameter :: f59 = 2.4611d+1
$ double precision, parameter :: f60 = 2.2210d-7
$ double precision, parameter :: f61 = 3.7081d-1
$ double precision, parameter :: f62 = 4.8050d-1
$ double precision, parameter :: f63 = 3.4821d-6
$ double precision, parameter :: f64 = 1.5025d-3
$ double precision, parameter :: f65 = 9.3118d0
$ double precision, parameter :: f66 = 5.9743d-1
$ double precision, parameter :: f67 = 8.2326d-3
$ double precision, parameter :: f68 = 4.2737d+1
$ double precision, parameter :: f69 = 1.2663d-5
$ double precision, parameter :: f70 = 4.9163d-8
$ double precision, parameter :: f71 = 1.2349d-4
$ double precision, parameter :: f72 = 8.3954d-6
$ double precision, parameter :: f73 = 4.2649d-7
$ double precision, parameter :: f74 = 5.0492d+2
$ double precision, parameter :: f75 = 3.7414d-8
$ double precision, parameter :: f76 = 2.2713d-5
$ double precision, parameter :: f77 = 2.4336d-8
$ double precision, parameter :: f78 = 3.3909d-3
$ double precision, parameter :: f79 = 7.8476d-1
$ double precision, parameter :: f80 = 3.1568d-6
$ double precision, parameter :: f81 = 2.9474d-4
$ double precision, parameter :: f82 = 1.0074d-8
$ double precision, parameter :: f83 = 4.0495d-6
$ double precision, parameter :: f84 = 2.0689d-3
$ double precision, parameter :: f85 = 3.8208d-2
$ double precision, parameter :: f86 = 9.3976d-8
$ double precision, parameter :: f87 = 7.2409d+2
$ double precision, parameter :: f88 = 6.1789d-1
$ double precision, parameter :: f89 = 1.2581d+1
$ double precision, parameter :: f90 = 5.1971d-1
$ double precision, parameter :: f91 = 1.4230d0
$ double precision, parameter :: f92 = 8.7950d-1
$ double precision, parameter :: f93 = 1.5785d-3
$ double precision, parameter :: f94 = 2.7779d+2
$ double precision, parameter :: f95 = 1.3729d+2
$ double precision, parameter :: f96 = 2.9319d-7
$ double precision, parameter :: f97 = 1.3806d-8
$ double precision, parameter :: f98 = 2.4477d-2
$ double precision, parameter :: f99 = 1.8336d+2
$ double precision, parameter :: f100 = 8.0856d0
$ double precision, parameter :: f101 = 6.1440d-8
$ double precision, parameter :: f102 = 3.4719d-4
$ double precision, parameter :: f103 = 5.0774d+1
$ double precision, parameter :: f104 = 7.8451d+1
$ double precision, parameter :: f105 = 1.9381d-2
$ double precision, parameter :: f106 = 1.6601d-6
$ double precision, parameter :: f107 = 5.2091d-4
$ double precision, parameter :: f108 = 2.9982d-3
$ double precision, parameter :: f109 = 5.6245d-4
$ double precision, parameter :: f110 = 4.7479d-4
$ double precision, parameter :: f111 = 8.5666d-1
$ double precision, parameter :: f112 = 8.1932d0
$ double precision, parameter :: f113 = 4.9514d0
$ double precision, parameter :: f114 = 2.4201d-2
$ double precision, parameter :: f115 = 1.6021d-1
$ double precision, parameter :: f116 = 8.5338d0
$ double precision, parameter :: f117 = 3.9474d-3
$ double precision, parameter :: f118 = 6.0009d-3
$ double precision, parameter :: f119 = 2.6893d-4
$ double precision, parameter :: f120 = 3.4501d-6
$ double precision, parameter :: f121 = 1.4993d-6
$ double precision, parameter :: f122 = 1.0703d-8
$ double precision, parameter :: f123 = 1.6670d-1
$ double precision, parameter :: f124 = 1.0962d+2
$ double precision, parameter :: f125 = 4.6446d-8
$ double precision, parameter :: f126 = 1.8809d0
$ double precision, parameter :: f127 = 2.4286d-7
$ double precision, parameter :: f128 = 2.3062d-3
$ double precision, parameter :: f129 = 5.3130d-1
$ double precision, parameter :: f130 = 2.8370d-4
$ double precision, parameter :: f131 = 2.1664d-6
$ double precision, parameter :: f132 = 7.2332d-4
$ double precision, parameter :: f133 = 2.3136d-5
$ double precision, parameter :: f134 = 7.4247d-4
$ double precision, parameter :: f135 = 3.1183d0
$ double precision, parameter :: f136 = 1.3144d-6
$ double precision, parameter :: f137 = 8.3012d-1
$ double precision, parameter :: f138 = 1.0929d-6
$ double precision, parameter :: f139 = 2.3156d-3
$ double precision, parameter :: f140 = 4.6715d-2
$ double precision, parameter :: f141 = 2.6530d-6
$ double precision, parameter :: f142 = 6.1387d-5
$ double precision, parameter :: f143 = 1.3431d0
$ double precision, parameter :: f144 = 6.2362d-4
$ double precision, parameter :: f145 = 8.2886d-1
$ double precision, parameter :: f146 = 4.7307d-7
$ double precision, parameter :: f147 = 3.3504d-7
$ double precision, parameter :: f148 = 4.6825d-6
$ double precision, parameter :: f149 = 1.3983d+1
$ double precision, parameter :: f150 = 2.2745d-7
$ double precision, parameter :: f151 = 3.1524d-6
$ double precision, parameter :: f152 = 1.3763d-5
$ double precision, parameter :: f153 = 6.3526d-5
$ double precision, parameter :: f154 = 4.5636d-3
$ double precision, parameter :: f155 = 1.1029d0
$ double precision, parameter :: f156 = 1.1043d-8
$ double precision, parameter :: f157 = 7.1920d-7
$ double precision, parameter :: f158 = 1.9495d-3
$ double precision, parameter :: f159 = 2.6576d-3
$ double precision, parameter :: f160 = 3.7210d-5
$ double precision, parameter :: f161 = 3.3353d-5
$ double precision, parameter :: f162 = 4.0888d-2
$ double precision, parameter :: f163 = 4.8406d0
$ double precision, parameter :: f164 = 3.4687d-3
$ double precision, parameter :: f165 = 3.9350d-3
$ double precision, parameter :: f166 = 8.1898d-5
$ double precision, parameter :: f167 = 8.7384d-2
$ double precision, parameter :: f168 = 7.9622d-6
$ double precision, parameter :: f169 = 1.9042d+2
$ double precision, parameter :: f170 = 1.2488d-7
$ double precision, parameter :: f171 = 3.7424d-3
$ double precision, parameter :: f172 = 3.4977d0
$ double precision, parameter :: f173 = 3.2853d-1
$ double precision, parameter :: f174 = 6.7700d-6
$ double precision, parameter :: f175 = 8.0097d-7
$ double precision, parameter :: f176 = 1.0422d+2
$ double precision, parameter :: f177 = 5.7878d-1
$ double precision, parameter :: f178 = 1.9381d-2
$ double precision, parameter :: f179 = 1.7428d+1
$ double precision, parameter :: f180 = 1.2491d-5
$ double precision, parameter :: f181 = 1.1037d-3
$ double precision, parameter :: f182 = 5.6105d-5
$ double precision, parameter :: f183 = 3.5627d-2
$ double precision, parameter :: f184 = 3.1781d+2
$ double precision, parameter :: f185 = 2.7453d0
$ double precision, parameter :: f186 = 8.2351d-8
$ double precision, parameter :: f187 = 8.5966d+1
$ double precision, parameter :: f188 = 3.2179d-3
$ double precision, parameter :: f189 = 2.0032d-8
$ double precision, parameter :: f190 = 1.1561d-2
$ double precision, parameter :: f191 = 5.6225d0
$ double precision, parameter :: f192 = 8.1055d-3
$ double precision, parameter :: f193 = 2.2588d-7
$ double precision, parameter :: f194 = 9.7147d+1
$ double precision, parameter :: f195 = 2.1625d-8
$ double precision, parameter :: f196 = 6.5651d-1
$ double precision, parameter :: f197 = 4.4022d0
$ double precision, parameter :: f198 = 4.2799d-6
$ double precision, parameter :: f199 = 5.8417d-7
$ double precision, parameter :: f200 = 3.5094d+2
$ double precision, parameter :: f201 = 1.2756d+2
$ double precision, parameter :: f202 = 1.2928d-1
$ double precision, parameter :: f203 = 1.0866d0
$ double precision, parameter :: f204 = 2.1243d-5
$ double precision, parameter :: f205 = 1.2916d-1
$ double precision, parameter :: f206 = 4.0930d+1
$ double precision, parameter :: f207 = 5.1266d-1
$ double precision, parameter :: f208 = 2.2368d-6
$ double precision, parameter :: f209 = 1.2204d-3
$ double precision, parameter :: f210 = 1.3937d+1
$ double precision, parameter :: f211 = 7.7554d-1
$ double precision, parameter :: f212 = 3.8494d+2
$ double precision, parameter :: f213 = 1.7503d+1
$ double precision, parameter :: f214 = 1.6317d-3
$ double precision, parameter :: f215 = 1.4638d-2
$ double precision, parameter :: f216 = 3.3043d0
$ double precision, parameter :: f217 = 1.3348d-2
$ double precision, parameter :: f218 = 4.7171d+2
$ double precision, parameter :: f219 = 1.0130d-5
$ double precision, parameter :: f220 = 8.2268d+2
$ double precision, parameter :: f221 = 1.3306d-3
$ double precision, parameter :: f222 = 1.0372d-4
$ double precision, parameter :: f223 = 2.2339d+1
$ double precision, parameter :: f224 = 1.5170d-8
$ double precision, parameter :: f225 = 2.4689d-1
$ double precision, parameter :: f226 = 3.9948d-3
$ double precision, parameter :: f227 = 7.6924d-4
$ double precision, parameter :: f228 = 2.5065d-6
$ double precision, parameter :: f229 = 3.4879d-4
$ double precision, parameter :: f230 = 5.7303d-3
$ double precision, parameter :: f231 = 9.0753d-4
$ double precision, parameter :: f232 = 8.1110d-3
$ double precision, parameter :: f233 = 8.9888d+2
$ double precision, parameter :: f234 = 7.1169d-3
$ double precision, parameter :: f235 = 2.6721d-4
$ double precision, parameter :: f236 = 1.6596d-8
$ double precision, parameter :: f237 = 6.9885d0
$ double precision, parameter :: f238 = 1.7055d-5
$ double precision, parameter :: f239 = 3.3281d-2
$ double precision, parameter :: f240 = 8.8124d-1
$ double precision, parameter :: f241 = 3.4768d+2
$ double precision, parameter :: f242 = 2.4048d-7
$ double precision, parameter :: f243 = 2.1503d-1
$ double precision, parameter :: f244 = 6.0256d-5
$ double precision, parameter :: f245 = 8.6498d-6
$ double precision, parameter :: f246 = 1.4617d-7
$ double precision, parameter :: f247 = 1.7982d-7
$ double precision, parameter :: f248 = 2.4006d-6
$ double precision, parameter :: f249 = 3.2055d-2
$ double precision, parameter :: f250 = 1.7507d+1
$ double precision, parameter :: f251 = 1.2998d-6
$ double precision, parameter :: f252 = 4.3070d-2
$ double precision, parameter :: f253 = 2.2451d-4
$ double precision, parameter :: f254 = 2.2426d+1
$ double precision, parameter :: f255 = 1.5170d-2
$ double precision, parameter :: f256 = 6.4892d+2
$ double precision, parameter :: f257 = 5.9092d+2
$ double precision, parameter :: f258 = 1.3175d-7
$ double precision, parameter :: f259 = 2.8734d-5
$ double precision, parameter :: f260 = 9.6683d+2
$ double precision, parameter :: f261 = 1.8390d-1
$ double precision, parameter :: f262 = 3.2258d-6
$ double precision, parameter :: f263 = 5.0520d-3
$ double precision, parameter :: f264 = 1.4512d-7
$ double precision, parameter :: f265 = 4.5877d-4
$ double precision, parameter :: f266 = 1.2039d-7
$ double precision, parameter :: f267 = 1.6365d-7
$ double precision, parameter :: f268 = 1.4217d-1
$ double precision, parameter :: f269 = 2.8446d+1
$ double precision, parameter :: f270 = 4.0442d-6
$ double precision, parameter :: f271 = 3.5575d-3
$ double precision, parameter :: f272 = 3.8893d-5
$ double precision, parameter :: f273 = 1.5925d-6
$ double precision, parameter :: f274 = 4.5241d-8
$ double precision, parameter :: f275 = 3.7677d+1
$ double precision, parameter :: f276 = 3.0409d-8
$ double precision, parameter :: f277 = 1.7194d-5
$ double precision, parameter :: f278 = 1.0126d-8
$ double precision, parameter :: f279 = 3.5742d0
$ double precision, parameter :: f280 = 2.3125d-5
$ double precision, parameter :: f281 = 3.6658d-7
$ double precision, parameter :: f282 = 4.5851d0
$ double precision, parameter :: f283 = 2.1470d-7
$ double precision, parameter :: f284 = 5.8797d-6
$ double precision, parameter :: f285 = 2.8169d-1
$ double precision, parameter :: f286 = 7.0752d-4
$ double precision, parameter :: f287 = 1.0703d-4
$ double precision, parameter :: f288 = 6.1896d-4
$ double precision, parameter :: f289 = 3.3574d+1
$ double precision, parameter :: f290 = 2.7623d-6
$ double precision, parameter :: f291 = 9.2810d-5
$ double precision, parameter :: f292 = 6.1033d-3
$ double precision, parameter :: f293 = 1.2861d-5
$ double precision, parameter :: f294 = 3.3500d-3
$ double precision, parameter :: f295 = 1.8696d-8
$ double precision, parameter :: f296 = 2.5946d+1
$ double precision, parameter :: f297 = 5.6704d-6
$ double precision, parameter :: f298 = 9.2435d0
$ double precision, parameter :: f299 = 4.0515d-6
$ double precision, parameter :: f300 = 2.2408d-2
$ double precision, parameter :: f301 = 1.3618d-7
$ double precision, parameter :: f302 = 1.0685d-7
$ double precision, parameter :: f303 = 1.6028d-8
$ double precision, parameter :: f304 = 1.2167d-7
$ double precision, parameter :: f305 = 1.7005d-5
$ double precision, parameter :: f306 = 2.5975d+2
$ double precision, parameter :: f307 = 3.5108d-4
$ double precision, parameter :: f308 = 5.5941d-8
$ double precision, parameter :: f309 = 5.6146d+1
$ double precision, parameter :: f310 = 1.2053d+2
$ double precision, parameter :: f311 = 1.2945d-6
$ double precision, parameter :: f312 = 2.0422d+1
$ double precision, parameter :: f313 = 1.1068d-8
$ double precision, parameter :: f314 = 1.0718d0
$ double precision, parameter :: f315 = 1.5850d0

# Electron Collision Reaction
e + CH4 => e + CH4(v24)		! f0 * Bolsig+ CH4 -> CH4(v24)
e + CH4 => e + CH4(v13)		! f1 * Bolsig+ CH4 -> CH4(v13)
e + C2H6 => e + C2H6(v24)		! f2 * Bolsig+ C2H6 -> C2H6(v24)
e + C2H6 => e + C2H6(v13)		! f3 * Bolsig+ C2H6 -> C2H6(v13)
e + C2H4 => e + C2H4(v1)		! f4 * Bolsig+ C2H4 -> C2H4(v1)
e + C2H4 => e + C2H4(v2)		! f5 * Bolsig+ C2H4 -> C2H4(v2)
e + C2H2 => e + C2H2(v5)		! f6 * Bolsig+ C2H2 -> C2H2(v5)
e + C2H2 => e + C2H2(v2)		! f7 * Bolsig+ C2H2 -> C2H2(v2)
e + C2H2 => e + C2H2(v13)		! f8 * Bolsig+ C2H2 -> C2H2(v13)
e + C3H8 => e + C3H8(v1)		! f9 * Bolsig+ C3H8 -> C3H8(v1)
e + C3H8 => e + C3H8(v2)		! f10 * Bolsig+ C3H8 -> C3H8(v2)
e + C3H6 => e + C3H6(v)		! f11 * Bolsig+ C3H6 -> C3H6(v)
e + CH4 => e + CH3 + H		! f12 * Bolsig+ CH4 -> CH3 H
e + CH4(v24) => e + CH3 + H		! f12 * Bolsig+ CH4(v24) -> CH3 H
e + CH4(v13) => e + CH3 + H		! f12 * Bolsig+ CH4(v13) -> CH3 H
e + CH4 => e + CH2 + H2		! f13 * Bolsig+ CH4 -> CH2 H2
e + CH4(v24) => e + CH2 + H2		! f13 * Bolsig+ CH4(v24) -> CH2 H2
e + CH4(v13) => e + CH2 + H2		! f13 * Bolsig+ CH4(v13) -> CH2 H2
e + CH4 => e + CH + H2 + H		! f14 * Bolsig+ CH4 -> CH H2 H
e + CH4(v24) => e + CH + H2 + H		! f14 * Bolsig+ CH4(v24) -> CH H2 H
e + CH4(v13) => e + CH + H2 + H		! f14 * Bolsig+ CH4(v13) -> CH H2 H
e + CH4 => e + C + H2 + H2		! f15 * Bolsig+ CH4 -> C H2 H2
e + CH4(v24) => e + C + H2 + H2		! f15 * Bolsig+ CH4(v24) -> C H2 H2
e + CH4(v13) => e + C + H2 + H2		! f15 * Bolsig+ CH4(v13) -> C H2 H2
e + CH3 => e + CH2 + H		! f16 * Bolsig+ CH3 -> CH2 H
e + CH3 => e + CH + H2		! f17 * Bolsig+ CH3 -> CH H2
e + CH3 => e + C + H2 + H		! f18 * Bolsig+ CH3 -> C H2 H
e + CH2 => e + CH + H		! f19 * Bolsig+ CH2 -> CH H
e + CH2 => e + C + H2		! f20 * Bolsig+ CH2 -> C H2
e + CH2 => e + C + H + H		! f21 * Bolsig+ CH2 -> C H H
e + CH => e + C + H		! f22 * Bolsig+ CH -> C H
e + CH4 => e + e + CH4^+		! f23 * Bolsig+ CH4 -> CH4^+
e + CH4(v24) => e + e + CH4^+		! f23 * Bolsig+ CH4(v24) -> CH4^+
e + CH4(v13) => e + e + CH4^+		! f23 * Bolsig+ CH4(v13) -> CH4^+
e + CH4 => e + e + H + CH3^+		! f24 * Bolsig+ CH4 -> H CH3^+
e + CH4(v24) => e + e + H + CH3^+		! f24 * Bolsig+ CH4(v24) -> H CH3^+
e + CH4(v13) => e + e + H + CH3^+		! f24 * Bolsig+ CH4(v13) -> H CH3^+
e + CH4 => e + e + H2 + CH2^+		! f25 * Bolsig+ CH4 -> H2 CH2^+
e + CH4(v24) => e + e + H2 + CH2^+		! f25 * Bolsig+ CH4(v24) -> H2 CH2^+
e + CH4(v13) => e + e + H2 + CH2^+		! f25 * Bolsig+ CH4(v13) -> H2 CH2^+
e + CH4 => e + e + H2 + H + CH^+		! f26 * Bolsig+ CH4 -> H2 H CH^+
e + CH4(v24) => e + e + H2 + H + CH^+		! f26 * Bolsig+ CH4(v24) -> H2 H CH^+
e + CH4(v13) => e + e + H2 + H + CH^+		! f26 * Bolsig+ CH4(v13) -> H2 H CH^+
e + CH3 => e + e + CH3^+		! f27 * Bolsig+ CH3 -> CH3^+
e + CH3 => e + e + H + CH2^+		! f28 * Bolsig+ CH3 -> H CH2^+
e + CH3 => e + e + H2 + CH^+		! f29 * Bolsig+ CH3 -> H2 CH^+
e + CH2 => e + e + CH2^+		! f30 * Bolsig+ CH2 -> CH2^+
e + CH2 => e + e + H + CH^+		! f31 * Bolsig+ CH2 -> H CH^+
e + CH => e + e + CH^+		! f32 * Bolsig+ CH -> CH^+
e + C2H6 => e + C2H5 + H		! f33 * Bolsig+ C2H6 -> C2H5 H
e + C2H6(v24) => e + C2H5 + H		! f33 * Bolsig+ C2H6(v24) -> C2H5 H
e + C2H6(v13) => e + C2H5 + H		! f33 * Bolsig+ C2H6(v13) -> C2H5 H
e + C2H6 => e + C2H4 + H2		! f34 * Bolsig+ C2H6 -> C2H4 H2
e + C2H6(v24) => e + C2H4 + H2		! f34 * Bolsig+ C2H6(v24) -> C2H4 H2
e + C2H6(v13) => e + C2H4 + H2		! f34 * Bolsig+ C2H6(v13) -> C2H4 H2
e + C2H6 => e + C2H3 + H2 + H		! f35 * Bolsig+ C2H6 -> C2H3 H2 H
e + C2H6(v24) => e + C2H3 + H2 + H		! f35 * Bolsig+ C2H6(v24) -> C2H3 H2 H
e + C2H6(v13) => e + C2H3 + H2 + H		! f35 * Bolsig+ C2H6(v13) -> C2H3 H2 H
e + C2H6 => e + C2H2 + H2 + H2		! f36 * Bolsig+ C2H6 -> C2H2 H2 H2
e + C2H6(v24) => e + C2H2 + H2 + H2		! f36 * Bolsig+ C2H6(v24) -> C2H2 H2 H2
e + C2H6(v13) => e + C2H2 + H2 + H2		! f36 * Bolsig+ C2H6(v13) -> C2H2 H2 H2
e + C2H6 => e + CH4 + CH2		! f37 * Bolsig+ C2H6 -> CH4 CH2
e + C2H6(v24) => e + CH4 + CH2		! f37 * Bolsig+ C2H6(v24) -> CH4 CH2
e + C2H6(v13) => e + CH4 + CH2		! f37 * Bolsig+ C2H6(v13) -> CH4 CH2
e + C2H6 => e + CH3 + CH3		! f38 * Bolsig+ C2H6 -> CH3 CH3
e + C2H6(v24) => e + CH3 + CH3		! f38 * Bolsig+ C2H6(v24) -> CH3 CH3
e + C2H6(v13) => e + CH3 + CH3		! f38 * Bolsig+ C2H6(v13) -> CH3 CH3
e + C2H5 => e + C2H4 + H		! f39 * Bolsig+ C2H5 -> C2H4 H
e + C2H5 => e + C2H3 + H2		! f40 * Bolsig+ C2H5 -> C2H3 H2
e + C2H5 => e + C2H3 + H + H		! f41 * Bolsig+ C2H5 -> C2H3 H H
e + C2H5 => e + C2H2 + H2 + H		! f42 * Bolsig+ C2H5 -> C2H2 H2 H
e + C2H5 => e + CH4 + CH		! f43 * Bolsig+ C2H5 -> CH4 CH
e + C2H5 => e + CH3 + CH2		! f44 * Bolsig+ C2H5 -> CH3 CH2
e + C2H4 => e + C2H3 + H		! f45 * Bolsig+ C2H4 -> C2H3 H
e + C2H4(v1) => e + C2H3 + H		! f45 * Bolsig+ C2H4(v1) -> C2H3 H
e + C2H4(v2) => e + C2H3 + H		! f45 * Bolsig+ C2H4(v2) -> C2H3 H
e + C2H4 => e + C2H2 + H2		! f46 * Bolsig+ C2H4 -> C2H2 H2
e + C2H4(v1) => e + C2H2 + H2		! f46 * Bolsig+ C2H4(v1) -> C2H2 H2
e + C2H4(v2) => e + C2H2 + H2		! f46 * Bolsig+ C2H4(v2) -> C2H2 H2
e + C2H4 => e + C2H2 + H + H		! f47 * Bolsig+ C2H4 -> C2H2 H H
e + C2H4(v1) => e + C2H2 + H + H		! f47 * Bolsig+ C2H4(v1) -> C2H2 H H
e + C2H4(v2) => e + C2H2 + H + H		! f47 * Bolsig+ C2H4(v2) -> C2H2 H H
e + C2H4 => e + CH3 + CH		! f48 * Bolsig+ C2H4 -> CH3 CH
e + C2H4(v1) => e + CH3 + CH		! f48 * Bolsig+ C2H4(v1) -> CH3 CH
e + C2H4(v2) => e + CH3 + CH		! f48 * Bolsig+ C2H4(v2) -> CH3 CH
e + C2H4 => e + CH2 + CH2		! f49 * Bolsig+ C2H4 -> CH2 CH2
e + C2H4(v1) => e + CH2 + CH2		! f49 * Bolsig+ C2H4(v1) -> CH2 CH2
e + C2H4(v2) => e + CH2 + CH2		! f49 * Bolsig+ C2H4(v2) -> CH2 CH2
e + C2H3 => e + C2H2 + H		! f50 * Bolsig+ C2H3 -> C2H2 H
e + C2H3 => e + CH2 + CH		! f51 * Bolsig+ C2H3 -> CH2 CH
e + C2H2 => e + CH + CH		! f52 * Bolsig+ C2H2 -> CH CH
e + C2H2(v5) => e + CH + CH		! f52 * Bolsig+ C2H2(v5) -> CH CH
e + C2H2(v2) => e + CH + CH		! f52 * Bolsig+ C2H2(v2) -> CH CH
e + C2H2(v13) => e + CH + CH		! f52 * Bolsig+ C2H2(v13) -> CH CH
e + C2H6 => e + e + C2H6^+		! f53 * Bolsig+ C2H6 -> C2H6^+
e + C2H6(v24) => e + e + C2H6^+		! f53 * Bolsig+ C2H6(v24) -> C2H6^+
e + C2H6(v13) => e + e + C2H6^+		! f53 * Bolsig+ C2H6(v13) -> C2H6^+
e + C2H6 => e + e + H + C2H5^+		! f54 * Bolsig+ C2H6 -> H C2H5^+
e + C2H6(v24) => e + e + H + C2H5^+		! f54 * Bolsig+ C2H6(v24) -> H C2H5^+
e + C2H6(v13) => e + e + H + C2H5^+		! f54 * Bolsig+ C2H6(v13) -> H C2H5^+
e + C2H6 => e + e + H2 + C2H4^+		! f55 * Bolsig+ C2H6 -> H2 C2H4^+
e + C2H6(v24) => e + e + H2 + C2H4^+		! f55 * Bolsig+ C2H6(v24) -> H2 C2H4^+
e + C2H6(v13) => e + e + H2 + C2H4^+		! f55 * Bolsig+ C2H6(v13) -> H2 C2H4^+
e + C2H6 => e + e + H2 + H + C2H3^+		! f56 * Bolsig+ C2H6 -> H2 H C2H3^+
e + C2H6(v24) => e + e + H2 + H + C2H3^+		! f56 * Bolsig+ C2H6(v24) -> H2 H C2H3^+
e + C2H6(v13) => e + e + H2 + H + C2H3^+		! f56 * Bolsig+ C2H6(v13) -> H2 H C2H3^+
e + C2H6 => e + e + H2 + H2 + C2H2^+		! f57 * Bolsig+ C2H6 -> H2 H2 C2H2^+
e + C2H6(v24) => e + e + H2 + H2 + C2H2^+		! f57 * Bolsig+ C2H6(v24) -> H2 H2 C2H2^+
e + C2H6(v13) => e + e + H2 + H2 + C2H2^+		! f57 * Bolsig+ C2H6(v13) -> H2 H2 C2H2^+
e + C2H6 => e + e + CH3 + CH3^+		! f58 * Bolsig+ C2H6 -> CH3 CH3^+
e + C2H6(v24) => e + e + CH3 + CH3^+		! f58 * Bolsig+ C2H6(v24) -> CH3 CH3^+
e + C2H6(v13) => e + e + CH3 + CH3^+		! f58 * Bolsig+ C2H6(v13) -> CH3 CH3^+
e + C2H6 => e + e + CH4 + CH2^+		! f59 * Bolsig+ C2H6 -> CH4 CH2^+
e + C2H6(v24) => e + e + CH4 + CH2^+		! f59 * Bolsig+ C2H6(v24) -> CH4 CH2^+
e + C2H6(v13) => e + e + CH4 + CH2^+		! f59 * Bolsig+ C2H6(v13) -> CH4 CH2^+
e + C2H5 => e + e + C2H5^+		! f60 * Bolsig+ C2H5 -> C2H5^+
e + C2H5 => e + e + H + C2H4^+		! f61 * Bolsig+ C2H5 -> H C2H4^+
e + C2H5 => e + e + H2 + C2H3^+		! f62 * Bolsig+ C2H5 -> H2 C2H3^+
e + C2H5 => e + e + H2 + H + C2H2^+		! f63 * Bolsig+ C2H5 -> H2 H C2H2^+
e + C2H5 => e + e + CH2 + CH3^+		! f64 * Bolsig+ C2H5 -> CH2 CH3^+
e + C2H5 => e + e + CH3 + CH2^+		! f65 * Bolsig+ C2H5 -> CH3 CH2^+
e + C2H5 => e + e + CH4 + CH^+		! f66 * Bolsig+ C2H5 -> CH4 CH^+
e + C2H4 => e + e + C2H4^+		! f67 * Bolsig+ C2H4 -> C2H4^+
e + C2H4(v1) => e + e + C2H4^+		! f67 * Bolsig+ C2H4(v1) -> C2H4^+
e + C2H4(v2) => e + e + C2H4^+		! f67 * Bolsig+ C2H4(v2) -> C2H4^+
e + C2H4 => e + e + H + C2H3^+		! f68 * Bolsig+ C2H4 -> H C2H3^+
e + C2H4(v1) => e + e + H + C2H3^+		! f68 * Bolsig+ C2H4(v1) -> H C2H3^+
e + C2H4(v2) => e + e + H + C2H3^+		! f68 * Bolsig+ C2H4(v2) -> H C2H3^+
e + C2H4 => e + e + CH + CH3^+		! f69 * Bolsig+ C2H4 -> CH CH3^+
e + C2H4(v1) => e + e + CH + CH3^+		! f69 * Bolsig+ C2H4(v1) -> CH CH3^+
e + C2H4(v2) => e + e + CH + CH3^+		! f69 * Bolsig+ C2H4(v2) -> CH CH3^+
e + C2H4 => e + e + CH2 + CH2^+		! f70 * Bolsig+ C2H4 -> CH2 CH2^+
e + C2H4(v1) => e + e + CH2 + CH2^+		! f70 * Bolsig+ C2H4(v1) -> CH2 CH2^+
e + C2H4(v2) => e + e + CH2 + CH2^+		! f70 * Bolsig+ C2H4(v2) -> CH2 CH2^+
e + C2H4 => e + e + CH3 + CH^+		! f71 * Bolsig+ C2H4 -> CH3 CH^+
e + C2H4(v1) => e + e + CH3 + CH^+		! f71 * Bolsig+ C2H4(v1) -> CH3 CH^+
e + C2H4(v2) => e + e + CH3 + CH^+		! f71 * Bolsig+ C2H4(v2) -> CH3 CH^+
e + C2H3 => e + e + C2H3^+		! f72 * Bolsig+ C2H3 -> C2H3^+
e + C2H3 => e + e + H + C2H2^+		! f73 * Bolsig+ C2H3 -> H C2H2^+
e + C2H3 => e + e + CH + CH2^+		! f74 * Bolsig+ C2H3 -> CH CH2^+
e + C2H3 => e + e + CH2 + CH^+		! f75 * Bolsig+ C2H3 -> CH2 CH^+
e + C2H3 => e + e + C2H2 + H^+		! f76 * Bolsig+ C2H3 -> C2H2 H^+
e + C2H2 => e + e + C2H2^+		! f77 * Bolsig+ C2H2 -> C2H2^+
e + C2H2(v5) => e + e + C2H2^+		! f77 * Bolsig+ C2H2(v5) -> C2H2^+
e + C2H2(v2) => e + e + C2H2^+		! f77 * Bolsig+ C2H2(v2) -> C2H2^+
e + C2H2(v13) => e + e + C2H2^+		! f77 * Bolsig+ C2H2(v13) -> C2H2^+
e + C2H2 => e + e + CH + CH^+		! f78 * Bolsig+ C2H2 -> CH CH^+
e + C2H2(v5) => e + e + CH + CH^+		! f78 * Bolsig+ C2H2(v5) -> CH CH^+
e + C2H2(v2) => e + e + CH + CH^+		! f78 * Bolsig+ C2H2(v2) -> CH CH^+
e + C2H2(v13) => e + e + CH + CH^+		! f78 * Bolsig+ C2H2(v13) -> CH CH^+
e + C3H8 => e + C3H7 + H		! f79 * Bolsig+ C3H8 -> C3H7 H
e + C3H8(v1) => e + C3H7 + H		! f79 * Bolsig+ C3H8(v1) -> C3H7 H
e + C3H8(v2) => e + C3H7 + H		! f79 * Bolsig+ C3H8(v2) -> C3H7 H
e + C3H8 => e + C3H6 + H2		! f80 * Bolsig+ C3H8 -> C3H6 H2
e + C3H8(v1) => e + C3H6 + H2		! f80 * Bolsig+ C3H8(v1) -> C3H6 H2
e + C3H8(v2) => e + C3H6 + H2		! f80 * Bolsig+ C3H8(v2) -> C3H6 H2
e + C3H7 => e + C3H6 + H		! f81 * Bolsig+ C3H7 -> C3H6 H
e + C3H8 => e + e + C3H8^+		! f82 * Bolsig+ C3H8 -> C3H8^+
e + C3H8(v1) => e + e + C3H8^+		! f82 * Bolsig+ C3H8(v1) -> C3H8^+
e + C3H8(v2) => e + e + C3H8^+		! f82 * Bolsig+ C3H8(v2) -> C3H8^+
e + C3H8 => e + e + H + C3H7^+		! f83 * Bolsig+ C3H8 -> H C3H7^+
e + C3H8(v1) => e + e + H + C3H7^+		! f83 * Bolsig+ C3H8(v1) -> H C3H7^+
e + C3H8(v2) => e + e + H + C3H7^+		! f83 * Bolsig+ C3H8(v2) -> H C3H7^+
e + C3H8 => e + e + H2 + C3H6^+		! f84 * Bolsig+ C3H8 -> H2 C3H6^+
e + C3H8(v1) => e + e + H2 + C3H6^+		! f84 * Bolsig+ C3H8(v1) -> H2 C3H6^+
e + C3H8(v2) => e + e + H2 + C3H6^+		! f84 * Bolsig+ C3H8(v2) -> H2 C3H6^+
e + C3H7 => e + e + C3H7^+		! f85 * Bolsig+ C3H7 -> C3H7^+
e + C3H7 => e + e + H + C3H6^+		! f86 * Bolsig+ C3H7 -> H C3H6^+
e + C3H6 => e + e + C3H6^+		! f87 * Bolsig+ C3H6 -> C3H6^+
e + C3H6(v) => e + e + C3H6^+		! f87 * Bolsig+ C3H6(v) -> C3H6^+
e + C3H6 => e + C2H2 + CH4		! f88 * Bolsig+ C3H6 -> C2H2 CH4
e + C3H6(v) => e + C2H2 + CH4		! f88 * Bolsig+ C3H6(v) -> C2H2 CH4
e + C3H6 => e + e + C2H2 + CH4^+		! f89 * Bolsig+ C3H6 -> C2H2 CH4^+
e + C3H6(v) => e + e + C2H2 + CH4^+		! f89 * Bolsig+ C3H6(v) -> C2H2 CH4^+

# Ion Recombination Reaction
e + e + CH^+ => e + CH		! f90 * 1.00d0
e + e + CH2^+ => e + CH2		! f91 * 1.00d0
e + e + CH3^+ => e + CH3		! f92 * 1.00d0
e + e + CH4^+ => e + CH4		! f93 * 1.00d0
e + e + C2H2^+ => e + C2H2		! f94 * 1.00d0
e + e + C2H3^+ => e + C2H3		! f95 * 1.00d0
e + e + C2H4^+ => e + C2H4		! f96 * 1.00d0
e + e + C2H5^+ => e + C2H5		! f97 * 1.00d0
e + e + C2H6^+ => e + C2H6		! f98 * 1.00d0
e + e + C3H6^+ => e + C3H6		! f99 * 1.00d0
e + e + C3H7^+ => e + C3H7		! f100 * 1.00d0
e + e + C3H8^+ => e + C3H8		! f101 * 1.00d0

# Gas Phase Reaction
e + CH4^+ => CH3 + H		! f102 * 1.18d-08 * (300./Tgas)**0.5
e + CH4^+ => CH2 + H + H		! f103 * 2.42d-08 * (300./Tgas)**0.5
e + CH4^+ => CH + H2 + H		! f104 * 1.41d-08 * (300./Tgas)**0.5
e + CH3^+ => CH2 + H		! f105 * 2.25d-08 * (300./Tgas)**0.5
e + CH3^+ => CH + H2		! f106 * 7.88d-09 * (300./Tgas)**0.5
e + CH3^+ => CH + H + H		! f107 * 9.00d-09 * (300./Tgas)**0.5
e + CH3^+ => C + H2 + H		! f108 * 1.69d-08 * (300./Tgas)**0.5
e + CH2^+ => CH + H		! f109 * 1.00d-08 * (300./Tgas)**0.5
e + CH2^+ => C + H2		! f110 * 4.82d-09 * (300./Tgas)**0.5
e + CH2^+ => C + H + H		! f111 * 2.53d-08 * (300./Tgas)**0.5
e + CH^+ => C + H		! f112 * 3.23d-08 * (300./Tgas)**0.42
e + C2H6^+ => C2H5 + H		! f113 * 2.19d-08 * (300./Tgas)**0.71
e + C2H6^+ => C2H4 + H + H		! f114 * 3.36d-08 * (300./Tgas)**0.71
e + C2H5^+ => C2H4 + H		! f115 * 7.70d-09 * (300./Tgas)**0.71
e + C2H5^+ => C2H3 + H + H		! f116 * 1.92d-08 * (300./Tgas)**0.71
e + C2H5^+ => C2H2 + H2 + H		! f117 * 1.60d-08 * (300./Tgas)**0.71
e + C2H5^+ => C2H2 + H + H + H		! f118 * 8.98d-09 * (300./Tgas)**0.71
e + C2H5^+ => CH3 + CH2		! f119 * 9.62d-09 * (300./Tgas)**0.71
e + C2H4^+ => C2H3 + H		! f120 * 8.29d-09 * (300./Tgas)**0.71
e + C2H4^+ => C2H2 + H + H		! f121 * 3.43d-08 * (300./Tgas)**0.71
e + C2H3^+ => C2H2 + H		! f122 * 1.34d-08 * (300./Tgas)**0.71
e + C2H2^+ => CH + CH		! f123 * 4.87d-09 * (300./Tgas)**0.71
e + H2^+ => H + H		! f124 * 3.17d21/(6.022d23 * Te**4.5)
e + H3^+ => H + H2		! f125 * 3.17d21/(6.022d23 * Te**4.5)
H2 + H2^+ => H + H3^+		! f126 * 2.11d-09
C2H6 + CH4^+ => CH4 + H2 + C2H4^+		! f127 * 1.91d-9
C2H6(v24) + CH4^+ => CH4 + H2 + C2H4^+		! f127 * 1.91d-9
C2H6(v13) + CH4^+ => CH4 + H2 + C2H4^+		! f127 * 1.91d-9
C2H4 + CH4^+ => CH3 + C2H5^+		! f128 * 4.23d-10