ELEMENTS
e C H
END

SPECIES
e C CH CH^+ CH2 CH2^+ CH3 CH3^+ CH4 CH4(v13) CH4(v24) CH4^+ C2H2 C2H2(v13) C2H2(v2) C2H2(v5) C2H2^+ C2H3 C2H3^+ C2H4 C2H4(v1) C2H4(v2) C2H4^+ C2H5 C2H5^+
C2H6 C2H6(v13) C2H6(v24) C2H6^+ C3H5 C3H6 C3H6(v) C3H6^+ C3H7 C3H7^+ C3H8 C3H8(v1) C3H8(v2) C3H8^+ C4H9 C4H9H C2H C5H12 H H2 H2^+ H3^+ H^+
END

BOLSIG
CH CH2 CH3 CH4 CH4(v13) CH4(v24) C2H2 C2H2(v13) C2H2(v2) C2H2(v5) C2H3 C2H4 C2H4(v1) C2H4(v2) C2H5 C2H6 C2H6(v13) C2H6(v24) C3H6 C3H6(v) C3H7 C3H8 C3H8(v1) C3H8(v2)
END

REACTIONS
# Gas Constant
$ double precision, parameter :: R = 8.314d-3

# Compensation Parameters
$ double precision, parameter :: f0 = 7.9971d-3
$ double precision, parameter :: f1 = 1.5438d+2
$ double precision, parameter :: f2 = 9.7014d-4
$ double precision, parameter :: f3 = 1.4548d-8
$ double precision, parameter :: f4 = 4.8722d+2
$ double precision, parameter :: f5 = 2.3224d-8
$ double precision, parameter :: f6 = 7.5495d-6
$ double precision, parameter :: f7 = 2.0553d-5
$ double precision, parameter :: f8 = 2.0755d-1
$ double precision, parameter :: f9 = 1.1551d0
$ double precision, parameter :: f10 = 4.9946d-4
$ double precision, parameter :: f11 = 2.7358d-2
$ double precision, parameter :: f12 = 2.9485d-1
$ double precision, parameter :: f13 = 2.3608d+1
$ double precision, parameter :: f14 = 5.5098d+1
$ double precision, parameter :: f15 = 6.9088d+2
$ double precision, parameter :: f16 = 1.4561d+2
$ double precision, parameter :: f17 = 7.6734d+2
$ double precision, parameter :: f18 = 5.1878d-1
$ double precision, parameter :: f19 = 1.4808d0
$ double precision, parameter :: f20 = 6.4948d-8
$ double precision, parameter :: f21 = 5.9177d+2
$ double precision, parameter :: f22 = 6.6086d-4
$ double precision, parameter :: f23 = 1.0417d-2
$ double precision, parameter :: f24 = 1.1299d-1
$ double precision, parameter :: f25 = 1.8936d-8
$ double precision, parameter :: f26 = 2.5301d-7
$ double precision, parameter :: f27 = 2.2280d-4
$ double precision, parameter :: f28 = 2.9019d-6
$ double precision, parameter :: f29 = 2.2172d-5
$ double precision, parameter :: f30 = 2.4912d-3
$ double precision, parameter :: f31 = 8.7748d-8
$ double precision, parameter :: f32 = 1.6470d+1
$ double precision, parameter :: f33 = 2.6333d-8
$ double precision, parameter :: f34 = 9.9637d-1
$ double precision, parameter :: f35 = 5.3971d-1
$ double precision, parameter :: f36 = 4.8374d0
$ double precision, parameter :: f37 = 1.2616d-8
$ double precision, parameter :: f38 = 6.1171d+2
$ double precision, parameter :: f39 = 7.2532d-2
$ double precision, parameter :: f40 = 2.0105d0
$ double precision, parameter :: f41 = 2.4804d+1
$ double precision, parameter :: f42 = 7.7065d-6
$ double precision, parameter :: f43 = 2.4469d0
$ double precision, parameter :: f44 = 2.1813d+2
$ double precision, parameter :: f45 = 1.7831d-2
$ double precision, parameter :: f46 = 7.6386d-1
$ double precision, parameter :: f47 = 1.3171d-5
$ double precision, parameter :: f48 = 1.4123d-8
$ double precision, parameter :: f49 = 3.2633d-6
$ double precision, parameter :: f50 = 4.0190d-8
$ double precision, parameter :: f51 = 6.9127d-6
$ double precision, parameter :: f52 = 2.4251d+1
$ double precision, parameter :: f53 = 1.1670d-8
$ double precision, parameter :: f54 = 1.4915d+1
$ double precision, parameter :: f55 = 2.8974d-5
$ double precision, parameter :: f56 = 2.2644d0
$ double precision, parameter :: f57 = 3.7210d-8
$ double precision, parameter :: f58 = 1.1745d-8
$ double precision, parameter :: f59 = 5.6410d-1
$ double precision, parameter :: f60 = 8.6137d-6
$ double precision, parameter :: f61 = 3.6723d-8
$ double precision, parameter :: f62 = 1.6263d-3
$ double precision, parameter :: f63 = 6.6538d+2
$ double precision, parameter :: f64 = 1.3770d0
$ double precision, parameter :: f65 = 2.1447d-3
$ double precision, parameter :: f66 = 1.2840d-5
$ double precision, parameter :: f67 = 1.3587d-2
$ double precision, parameter :: f68 = 4.5643d0
$ double precision, parameter :: f69 = 6.4086d-6
$ double precision, parameter :: f70 = 2.2539d-6
$ double precision, parameter :: f71 = 1.1932d-1
$ double precision, parameter :: f72 = 1.3669d-5
$ double precision, parameter :: f73 = 3.6671d-8
$ double precision, parameter :: f74 = 1.1846d+2
$ double precision, parameter :: f75 = 1.1133d-6
$ double precision, parameter :: f76 = 2.3619d0
$ double precision, parameter :: f77 = 6.9296d+2
$ double precision, parameter :: f78 = 3.3948d-5
$ double precision, parameter :: f79 = 4.8255d-6
$ double precision, parameter :: f80 = 1.3815d-8
$ double precision, parameter :: f81 = 3.7327d-7
$ double precision, parameter :: f82 = 6.6849d-5
$ double precision, parameter :: f83 = 5.2395d+2
$ double precision, parameter :: f84 = 6.8074d-4
$ double precision, parameter :: f85 = 5.7502d-2
$ double precision, parameter :: f86 = 5.3604d-4
$ double precision, parameter :: f87 = 1.5645d-6
$ double precision, parameter :: f88 = 2.9730d-1
$ double precision, parameter :: f89 = 6.9698d-5
$ double precision, parameter :: f90 = 4.1406d-8
$ double precision, parameter :: f91 = 2.8401d-7
$ double precision, parameter :: f92 = 2.5384d-4
$ double precision, parameter :: f93 = 4.2834d-1
$ double precision, parameter :: f94 = 6.5296d-8
$ double precision, parameter :: f95 = 6.1223d-3
$ double precision, parameter :: f96 = 5.2247d+1
$ double precision, parameter :: f97 = 2.5844d-5
$ double precision, parameter :: f98 = 1.8709d-4
$ double precision, parameter :: f99 = 1.0831d0
$ double precision, parameter :: f100 = 1.0472d-5
$ double precision, parameter :: f101 = 2.9220d-6
$ double precision, parameter :: f102 = 1.0403d-5
$ double precision, parameter :: f103 = 7.7425d-1
$ double precision, parameter :: f104 = 1.4661d0
$ double precision, parameter :: f105 = 2.8264d-8
$ double precision, parameter :: f106 = 1.4319d-2
$ double precision, parameter :: f107 = 6.4212d-2
$ double precision, parameter :: f108 = 5.3542d-3
$ double precision, parameter :: f109 = 1.2149d0
$ double precision, parameter :: f110 = 1.5191d-5
$ double precision, parameter :: f111 = 6.4838d+1
$ double precision, parameter :: f112 = 2.5821d+1
$ double precision, parameter :: f113 = 7.2150d+1
$ double precision, parameter :: f114 = 2.1858d-7
$ double precision, parameter :: f115 = 2.4545d+1
$ double precision, parameter :: f116 = 4.1967d-4
$ double precision, parameter :: f117 = 4.9303d-6
$ double precision, parameter :: f118 = 3.6453d-1
$ double precision, parameter :: f119 = 5.3795d-3
$ double precision, parameter :: f120 = 2.1266d-4
$ double precision, parameter :: f121 = 1.9294d-1
$ double precision, parameter :: f122 = 2.9683d0
$ double precision, parameter :: f123 = 6.3048d-5
$ double precision, parameter :: f124 = 1.1942d-1
$ double precision, parameter :: f125 = 3.0268d-4
$ double precision, parameter :: f126 = 2.0968d-6
$ double precision, parameter :: f127 = 6.6787d-2
$ double precision, parameter :: f128 = 3.1795d-5
$ double precision, parameter :: f129 = 2.0724d-5
$ double precision, parameter :: f130 = 2.0854d-4
$ double precision, parameter :: f131 = 2.2631d-7
$ double precision, parameter :: f132 = 5.3428d-1
$ double precision, parameter :: f133 = 8.5410d-2
$ double precision, parameter :: f134 = 4.0132d+1
$ double precision, parameter :: f135 = 2.2143d-8
$ double precision, parameter :: f136 = 2.1768d-8
$ double precision, parameter :: f137 = 1.5529d+1
$ double precision, parameter :: f138 = 2.6208d-8
$ double precision, parameter :: f139 = 3.1946d+2
$ double precision, parameter :: f140 = 4.9828d-1
$ double precision, parameter :: f141 = 2.3997d-2
$ double precision, parameter :: f142 = 7.6626d-6
$ double precision, parameter :: f143 = 8.0789d-2
$ double precision, parameter :: f144 = 1.1757d-3
$ double precision, parameter :: f145 = 1.3394d-3
$ double precision, parameter :: f146 = 5.9122d-1
$ double precision, parameter :: f147 = 8.3155d-8
$ double precision, parameter :: f148 = 9.5476d-4
$ double precision, parameter :: f149 = 1.2419d-1
$ double precision, parameter :: f150 = 6.9129d-1
$ double precision, parameter :: f151 = 1.0117d-6
$ double precision, parameter :: f152 = 9.4413d-2
$ double precision, parameter :: f153 = 4.3354d-8
$ double precision, parameter :: f154 = 2.4912d0
$ double precision, parameter :: f155 = 3.9472d-8
$ double precision, parameter :: f156 = 6.7522d-8
$ double precision, parameter :: f157 = 2.6648d-6
$ double precision, parameter :: f158 = 1.0472d+2
$ double precision, parameter :: f159 = 6.1901d-7
$ double precision, parameter :: f160 = 8.7769d-5
$ double precision, parameter :: f161 = 3.2618d-5
$ double precision, parameter :: f162 = 3.9921d-1
$ double precision, parameter :: f163 = 1.5298d-2
$ double precision, parameter :: f164 = 3.8353d+1
$ double precision, parameter :: f165 = 3.8099d-3
$ double precision, parameter :: f166 = 5.2658d+1
$ double precision, parameter :: f167 = 1.2356d-6
$ double precision, parameter :: f168 = 2.2802d-3
$ double precision, parameter :: f169 = 5.9666d-5
$ double precision, parameter :: f170 = 2.4850d-1
$ double precision, parameter :: f171 = 4.1962d0
$ double precision, parameter :: f172 = 3.3017d-2
$ double precision, parameter :: f173 = 1.0244d-1
$ double precision, parameter :: f174 = 4.3888d-2
$ double precision, parameter :: f175 = 5.7308d-6
$ double precision, parameter :: f176 = 4.3107d-1
$ double precision, parameter :: f177 = 2.0726d-2
$ double precision, parameter :: f178 = 3.4618d-5
$ double precision, parameter :: f179 = 2.1911d+2
$ double precision, parameter :: f180 = 4.7599d-3
$ double precision, parameter :: f181 = 8.6039d0
$ double precision, parameter :: f182 = 6.5744d-7
$ double precision, parameter :: f183 = 1.2550d-6
$ double precision, parameter :: f184 = 6.5269d-8
$ double precision, parameter :: f185 = 6.3578d-1
$ double precision, parameter :: f186 = 1.8297d+2
$ double precision, parameter :: f187 = 8.7586d-5
$ double precision, parameter :: f188 = 7.8290d-7
$ double precision, parameter :: f189 = 6.3500d+2
$ double precision, parameter :: f190 = 6.0842d-6
$ double precision, parameter :: f191 = 1.3627d-2
$ double precision, parameter :: f192 = 1.7239d+1
$ double precision, parameter :: f193 = 2.3483d-1
$ double precision, parameter :: f194 = 1.5422d-2
$ double precision, parameter :: f195 = 1.0176d+1
$ double precision, parameter :: f196 = 1.3159d-8
$ double precision, parameter :: f197 = 4.7493d+2
$ double precision, parameter :: f198 = 1.0421d0
$ double precision, parameter :: f199 = 4.5545d-1
$ double precision, parameter :: f200 = 2.6727d-8
$ double precision, parameter :: f201 = 1.8772d-3
$ double precision, parameter :: f202 = 5.8641d-1
$ double precision, parameter :: f203 = 4.3416d+1
$ double precision, parameter :: f204 = 7.8071d+1
$ double precision, parameter :: f205 = 1.1605d-5
$ double precision, parameter :: f206 = 1.2516d+1
$ double precision, parameter :: f207 = 5.7273d-3
$ double precision, parameter :: f208 = 2.9159d-6
$ double precision, parameter :: f209 = 7.8647d-5
$ double precision, parameter :: f210 = 1.6543d-3
$ double precision, parameter :: f211 = 2.8707d+1
$ double precision, parameter :: f212 = 8.6127d+1
$ double precision, parameter :: f213 = 6.6922d-2
$ double precision, parameter :: f214 = 2.7540d-7
$ double precision, parameter :: f215 = 1.1145d-3
$ double precision, parameter :: f216 = 2.1281d+2
$ double precision, parameter :: f217 = 3.9249d0
$ double precision, parameter :: f218 = 1.8338d+2
$ double precision, parameter :: f219 = 1.7462d-4
$ double precision, parameter :: f220 = 1.0597d-2
$ double precision, parameter :: f221 = 1.3111d-5
$ double precision, parameter :: f222 = 4.3821d-6
$ double precision, parameter :: f223 = 1.9386d-2
$ double precision, parameter :: f224 = 7.3937d-2
$ double precision, parameter :: f225 = 1.6536d-6
$ double precision, parameter :: f226 = 9.8853d-3
$ double precision, parameter :: f227 = 5.3664d-3
$ double precision, parameter :: f228 = 1.2923d-3
$ double precision, parameter :: f229 = 4.1417d+2
$ double precision, parameter :: f230 = 1.9250d-3
$ double precision, parameter :: f231 = 3.0275d-5
$ double precision, parameter :: f232 = 2.0088d-5
$ double precision, parameter :: f233 = 2.0882d0
$ double precision, parameter :: f234 = 9.7390d-5
$ double precision, parameter :: f235 = 5.0132d-4
$ double precision, parameter :: f236 = 1.6047d-4
$ double precision, parameter :: f237 = 7.7848d-7
$ double precision, parameter :: f238 = 3.1811d-7
$ double precision, parameter :: f239 = 1.3742d-8
$ double precision, parameter :: f240 = 2.6401d-5
$ double precision, parameter :: f241 = 1.8323d-5
$ double precision, parameter :: f242 = 7.3595d-3
$ double precision, parameter :: f243 = 6.2168d-2
$ double precision, parameter :: f244 = 1.4201d0
$ double precision, parameter :: f245 = 1.6874d-6
$ double precision, parameter :: f246 = 1.4028d-8
$ double precision, parameter :: f247 = 1.3971d+1
$ double precision, parameter :: f248 = 2.6955d-5
$ double precision, parameter :: f249 = 2.4387d-3
$ double precision, parameter :: f250 = 6.7933d-5
$ double precision, parameter :: f251 = 2.6264d-5
$ double precision, parameter :: f252 = 1.0458d-7
$ double precision, parameter :: f253 = 6.3900d-1
$ double precision, parameter :: f254 = 2.5392d+2
$ double precision, parameter :: f255 = 3.8247d-5
$ double precision, parameter :: f256 = 4.7985d-8
$ double precision, parameter :: f257 = 2.3015d+2
$ double precision, parameter :: f258 = 6.3942d-1
$ double precision, parameter :: f259 = 2.0289d-4
$ double precision, parameter :: f260 = 7.4638d-8
$ double precision, parameter :: f261 = 3.0558d-6
$ double precision, parameter :: f262 = 8.3698d-8
$ double precision, parameter :: f263 = 1.5828d+2
$ double precision, parameter :: f264 = 1.0942d+1
$ double precision, parameter :: f265 = 1.0647d-4
$ double precision, parameter :: f266 = 2.8250d-2
$ double precision, parameter :: f267 = 3.4723d-3
$ double precision, parameter :: f268 = 2.7601d-1
$ double precision, parameter :: f269 = 2.7645d-2
$ double precision, parameter :: f270 = 6.2440d-3
$ double precision, parameter :: f271 = 4.1230d+2
$ double precision, parameter :: f272 = 5.8365d-6
$ double precision, parameter :: f273 = 2.2937d-6
$ double precision, parameter :: f274 = 2.8036d0
$ double precision, parameter :: f275 = 4.4396d-8
$ double precision, parameter :: f276 = 4.9022d+2
$ double precision, parameter :: f277 = 9.2513d-1
$ double precision, parameter :: f278 = 3.9022d-1
$ double precision, parameter :: f279 = 8.1269d-3
$ double precision, parameter :: f280 = 1.2425d+1
$ double precision, parameter :: f281 = 1.6691d+1
$ double precision, parameter :: f282 = 4.8705d-2
$ double precision, parameter :: f283 = 1.0912d-6
$ double precision, parameter :: f284 = 4.7119d-8
$ double precision, parameter :: f285 = 2.0858d-7
$ double precision, parameter :: f286 = 1.2379d-3
$ double precision, parameter :: f287 = 1.3612d-7
$ double precision, parameter :: f288 = 9.7254d+1
$ double precision, parameter :: f289 = 2.5520d+2
$ double precision, parameter :: f290 = 3.1094d-6
$ double precision, parameter :: f291 = 2.0597d-5
$ double precision, parameter :: f292 = 1.7670d-8
$ double precision, parameter :: f293 = 2.0104d-1
$ double precision, parameter :: f294 = 1.6724d-8
$ double precision, parameter :: f295 = 2.0204d+2
$ double precision, parameter :: f296 = 3.6788d-7
$ double precision, parameter :: f297 = 3.7122d-5
$ double precision, parameter :: f298 = 1.8871d-6
$ double precision, parameter :: f299 = 5.3587d-7
$ double precision, parameter :: f300 = 1.5394d-8
$ double precision, parameter :: f301 = 1.2098d-6
$ double precision, parameter :: f302 = 6.9892d+2
$ double precision, parameter :: f303 = 5.0551d0
$ double precision, parameter :: f304 = 9.3743d-3
$ double precision, parameter :: f305 = 1.0217d-3
$ double precision, parameter :: f306 = 8.7971d0
$ double precision, parameter :: f307 = 2.1109d-3
$ double precision, parameter :: f308 = 4.4968d+1
$ double precision, parameter :: f309 = 1.0771d-5
$ double precision, parameter :: f310 = 2.1926d-3
$ double precision, parameter :: f311 = 1.3504d-6
$ double precision, parameter :: f312 = 8.3660d-8
$ double precision, parameter :: f313 = 1.5819d0
$ double precision, parameter :: f314 = 3.3285d-6
$ double precision, parameter :: f315 = 3.1256d-3

# Electron Collision Reaction
e + CH4 => e + CH4(v24)		! f0 * Bolsig+ CH4 -> CH4(v24)
e + CH4 => e + CH4(v13)		! f1 * Bolsig+ CH4 -> CH4(v13)
e + C2H6 => e + C2H6(v24)		! f2 * Bolsig+ C2H6 -> C2H6(v24)
e + C2H6 => e + C2H6(v13)		! f3 * Bolsig+ C2H6 -> C2H6(v13)
e + C2H4 => e + C2H4(v1)		! f4 * Bolsig+ C2H4 -> C2H4(v1)
e + C2H4 => e + C2H4(v2)		! f5 * Bolsig+ C2H4 -> C2H4(v2)
e + C2H2 => e + C2H2(v5)		! f6 * Bolsig+ C2H2 -> C2H2(v5)
e + C2H2 => e + C2H2(v2)		! f7 * Bolsig+ C2H2 -> C2H2(v2)
e + C2H2 => e + C2H2(v13)		! f8 * Bolsig+ C2H2 -> C2H2(v13)
e + C3H8 => e + C3H8(v1)		! f9 * Bolsig+ C3H8 -> C3H8(v1)
e + C3H8 => e + C3H8(v2)		! f10 * Bolsig+ C3H8 -> C3H8(v2)
e + C3H6 => e + C3H6(v)		! f11 * Bolsig+ C3H6 -> C3H6(v)
e + CH4 => e + CH3 + H		! f12 * Bolsig+ CH4 -> CH3 H
e + CH4(v24) => e + CH3 + H		! f12 * Bolsig+ CH4(v24) -> CH3 H
e + CH4(v13) => e + CH3 + H		! f12 * Bolsig+ CH4(v13) -> CH3 H
e + CH4 => e + CH2 + H2		! f13 * Bolsig+ CH4 -> CH2 H2
e + CH4(v24) => e + CH2 + H2		! f13 * Bolsig+ CH4(v24) -> CH2 H2
e + CH4(v13) => e + CH2 + H2		! f13 * Bolsig+ CH4(v13) -> CH2 H2
e + CH4 => e + CH + H2 + H		! f14 * Bolsig+ CH4 -> CH H2 H
e + CH4(v24) => e + CH + H2 + H		! f14 * Bolsig+ CH4(v24) -> CH H2 H
e + CH4(v13) => e + CH + H2 + H		! f14 * Bolsig+ CH4(v13) -> CH H2 H
e + CH4 => e + C + H2 + H2		! f15 * Bolsig+ CH4 -> C H2 H2
e + CH4(v24) => e + C + H2 + H2		! f15 * Bolsig+ CH4(v24) -> C H2 H2
e + CH4(v13) => e + C + H2 + H2		! f15 * Bolsig+ CH4(v13) -> C H2 H2
e + CH3 => e + CH2 + H		! f16 * Bolsig+ CH3 -> CH2 H
e + CH3 => e + CH + H2		! f17 * Bolsig+ CH3 -> CH H2
e + CH3 => e + C + H2 + H		! f18 * Bolsig+ CH3 -> C H2 H
e + CH2 => e + CH + H		! f19 * Bolsig+ CH2 -> CH H
e + CH2 => e + C + H2		! f20 * Bolsig+ CH2 -> C H2
e + CH2 => e + C + H + H		! f21 * Bolsig+ CH2 -> C H H
e + CH => e + C + H		! f22 * Bolsig+ CH -> C H
e + CH4 => e + e + CH4^+		! f23 * Bolsig+ CH4 -> CH4^+
e + CH4(v24) => e + e + CH4^+		! f23 * Bolsig+ CH4(v24) -> CH4^+
e + CH4(v13) => e + e + CH4^+		! f23 * Bolsig+ CH4(v13) -> CH4^+
e + CH4 => e + e + H + CH3^+		! f24 * Bolsig+ CH4 -> H CH3^+
e + CH4(v24) => e + e + H + CH3^+		! f24 * Bolsig+ CH4(v24) -> H CH3^+
e + CH4(v13) => e + e + H + CH3^+		! f24 * Bolsig+ CH4(v13) -> H CH3^+
e + CH4 => e + e + H2 + CH2^+		! f25 * Bolsig+ CH4 -> H2 CH2^+
e + CH4(v24) => e + e + H2 + CH2^+		! f25 * Bolsig+ CH4(v24) -> H2 CH2^+
e + CH4(v13) => e + e + H2 + CH2^+		! f25 * Bolsig+ CH4(v13) -> H2 CH2^+
e + CH4 => e + e + H2 + H + CH^+		! f26 * Bolsig+ CH4 -> H2 H CH^+
e + CH4(v24) => e + e + H2 + H + CH^+		! f26 * Bolsig+ CH4(v24) -> H2 H CH^+
e + CH4(v13) => e + e + H2 + H + CH^+		! f26 * Bolsig+ CH4(v13) -> H2 H CH^+
e + CH3 => e + e + CH3^+		! f27 * Bolsig+ CH3 -> CH3^+
e + CH3 => e + e + H + CH2^+		! f28 * Bolsig+ CH3 -> H CH2^+
e + CH3 => e + e + H2 + CH^+		! f29 * Bolsig+ CH3 -> H2 CH^+
e + CH2 => e + e + CH2^+		! f30 * Bolsig+ CH2 -> CH2^+
e + CH2 => e + e + H + CH^+		! f31 * Bolsig+ CH2 -> H CH^+
e + CH => e + e + CH^+		! f32 * Bolsig+ CH -> CH^+
e + C2H6 => e + C2H5 + H		! f33 * Bolsig+ C2H6 -> C2H5 H
e + C2H6(v24) => e + C2H5 + H		! f33 * Bolsig+ C2H6(v24) -> C2H5 H
e + C2H6(v13) => e + C2H5 + H		! f33 * Bolsig+ C2H6(v13) -> C2H5 H
e + C2H6 => e + C2H4 + H2		! f34 * Bolsig+ C2H6 -> C2H4 H2
e + C2H6(v24) => e + C2H4 + H2		! f34 * Bolsig+ C2H6(v24) -> C2H4 H2
e + C2H6(v13) => e + C2H4 + H2		! f34 * Bolsig+ C2H6(v13) -> C2H4 H2
e + C2H6 => e + C2H3 + H2 + H		! f35 * Bolsig+ C2H6 -> C2H3 H2 H
e + C2H6(v24) => e + C2H3 + H2 + H		! f35 * Bolsig+ C2H6(v24) -> C2H3 H2 H
e + C2H6(v13) => e + C2H3 + H2 + H		! f35 * Bolsig+ C2H6(v13) -> C2H3 H2 H
e + C2H6 => e + C2H2 + H2 + H2		! f36 * Bolsig+ C2H6 -> C2H2 H2 H2
e + C2H6(v24) => e + C2H2 + H2 + H2		! f36 * Bolsig+ C2H6(v24) -> C2H2 H2 H2
e + C2H6(v13) => e + C2H2 + H2 + H2		! f36 * Bolsig+ C2H6(v13) -> C2H2 H2 H2
e + C2H6 => e + CH4 + CH2		! f37 * Bolsig+ C2H6 -> CH4 CH2
e + C2H6(v24) => e + CH4 + CH2		! f37 * Bolsig+ C2H6(v24) -> CH4 CH2
e + C2H6(v13) => e + CH4 + CH2		! f37 * Bolsig+ C2H6(v13) -> CH4 CH2
e + C2H6 => e + CH3 + CH3		! f38 * Bolsig+ C2H6 -> CH3 CH3
e + C2H6(v24) => e + CH3 + CH3		! f38 * Bolsig+ C2H6(v24) -> CH3 CH3
e + C2H6(v13) => e + CH3 + CH3		! f38 * Bolsig+ C2H6(v13) -> CH3 CH3
e + C2H5 => e + C2H4 + H		! f39 * Bolsig+ C2H5 -> C2H4 H
e + C2H5 => e + C2H3 + H2		! f40 * Bolsig+ C2H5 -> C2H3 H2
e + C2H5 => e + C2H3 + H + H		! f41 * Bolsig+ C2H5 -> C2H3 H H
e + C2H5 => e + C2H2 + H2 + H		! f42 * Bolsig+ C2H5 -> C2H2 H2 H
e + C2H5 => e + CH4 + CH		! f43 * Bolsig+ C2H5 -> CH4 CH
e + C2H5 => e + CH3 + CH2		! f44 * Bolsig+ C2H5 -> CH3 CH2
e + C2H4 => e + C2H3 + H		! f45 * Bolsig+ C2H4 -> C2H3 H
e + C2H4(v1) => e + C2H3 + H		! f45 * Bolsig+ C2H4(v1) -> C2H3 H
e + C2H4(v2) => e + C2H3 + H		! f45 * Bolsig+ C2H4(v2) -> C2H3 H
e + C2H4 => e + C2H2 + H2		! f46 * Bolsig+ C2H4 -> C2H2 H2
e + C2H4(v1) => e + C2H2 + H2		! f46 * Bolsig+ C2H4(v1) -> C2H2 H2
e + C2H4(v2) => e + C2H2 + H2		! f46 * Bolsig+ C2H4(v2) -> C2H2 H2
e + C2H4 => e + C2H2 + H + H		! f47 * Bolsig+ C2H4 -> C2H2 H H
e + C2H4(v1) => e + C2H2 + H + H		! f47 * Bolsig+ C2H4(v1) -> C2H2 H H
e + C2H4(v2) => e + C2H2 + H + H		! f47 * Bolsig+ C2H4(v2) -> C2H2 H H
e + C2H4 => e + CH3 + CH		! f48 * Bolsig+ C2H4 -> CH3 CH
e + C2H4(v1) => e + CH3 + CH		! f48 * Bolsig+ C2H4(v1) -> CH3 CH
e + C2H4(v2) => e + CH3 + CH		! f48 * Bolsig+ C2H4(v2) -> CH3 CH
e + C2H4 => e + CH2 + CH2		! f49 * Bolsig+ C2H4 -> CH2 CH2
e + C2H4(v1) => e + CH2 + CH2		! f49 * Bolsig+ C2H4(v1) -> CH2 CH2
e + C2H4(v2) => e + CH2 + CH2		! f49 * Bolsig+ C2H4(v2) -> CH2 CH2
e + C2H3 => e + C2H2 + H		! f50 * Bolsig+ C2H3 -> C2H2 H
e + C2H3 => e + CH2 + CH		! f51 * Bolsig+ C2H3 -> CH2 CH
e + C2H2 => e + CH + CH		! f52 * Bolsig+ C2H2 -> CH CH
e + C2H2(v5) => e + CH + CH		! f52 * Bolsig+ C2H2(v5) -> CH CH
e + C2H2(v2) => e + CH + CH		! f52 * Bolsig+ C2H2(v2) -> CH CH
e + C2H2(v13) => e + CH + CH		! f52 * Bolsig+ C2H2(v13) -> CH CH
e + C2H6 => e + e + C2H6^+		! f53 * Bolsig+ C2H6 -> C2H6^+
e + C2H6(v24) => e + e + C2H6^+		! f53 * Bolsig+ C2H6(v24) -> C2H6^+
e + C2H6(v13) => e + e + C2H6^+		! f53 * Bolsig+ C2H6(v13) -> C2H6^+
e + C2H6 => e + e + H + C2H5^+		! f54 * Bolsig+ C2H6 -> H C2H5^+
e + C2H6(v24) => e + e + H + C2H5^+		! f54 * Bolsig+ C2H6(v24) -> H C2H5^+
e + C2H6(v13) => e + e + H + C2H5^+		! f54 * Bolsig+ C2H6(v13) -> H C2H5^+
e + C2H6 => e + e + H2 + C2H4^+		! f55 * Bolsig+ C2H6 -> H2 C2H4^+
e + C2H6(v24) => e + e + H2 + C2H4^+		! f55 * Bolsig+ C2H6(v24) -> H2 C2H4^+
e + C2H6(v13) => e + e + H2 + C2H4^+		! f55 * Bolsig+ C2H6(v13) -> H2 C2H4^+
e + C2H6 => e + e + H2 + H + C2H3^+		! f56 * Bolsig+ C2H6 -> H2 H C2H3^+
e + C2H6(v24) => e + e + H2 + H + C2H3^+		! f56 * Bolsig+ C2H6(v24) -> H2 H C2H3^+
e + C2H6(v13) => e + e + H2 + H + C2H3^+		! f56 * Bolsig+ C2H6(v13) -> H2 H C2H3^+
e + C2H6 => e + e + H2 + H2 + C2H2^+		! f57 * Bolsig+ C2H6 -> H2 H2 C2H2^+
e + C2H6(v24) => e + e + H2 + H2 + C2H2^+		! f57 * Bolsig+ C2H6(v24) -> H2 H2 C2H2^+
e + C2H6(v13) => e + e + H2 + H2 + C2H2^+		! f57 * Bolsig+ C2H6(v13) -> H2 H2 C2H2^+
e + C2H6 => e + e + CH3 + CH3^+		! f58 * Bolsig+ C2H6 -> CH3 CH3^+
e + C2H6(v24) => e + e + CH3 + CH3^+		! f58 * Bolsig+ C2H6(v24) -> CH3 CH3^+
e + C2H6(v13) => e + e + CH3 + CH3^+		! f58 * Bolsig+ C2H6(v13) -> CH3 CH3^+
e + C2H6 => e + e + CH4 + CH2^+		! f59 * Bolsig+ C2H6 -> CH4 CH2^+
e + C2H6(v24) => e + e + CH4 + CH2^+		! f59 * Bolsig+ C2H6(v24) -> CH4 CH2^+
e + C2H6(v13) => e + e + CH4 + CH2^+		! f59 * Bolsig+ C2H6(v13) -> CH4 CH2^+
e + C2H5 => e + e + C2H5^+		! f60 * Bolsig+ C2H5 -> C2H5^+
e + C2H5 => e + e + H + C2H4^+		! f61 * Bolsig+ C2H5 -> H C2H4^+
e + C2H5 => e + e + H2 + C2H3^+		! f62 * Bolsig+ C2H5 -> H2 C2H3^+
e + C2H5 => e + e + H2 + H + C2H2^+		! f63 * Bolsig+ C2H5 -> H2 H C2H2^+
e + C2H5 => e + e + CH2 + CH3^+		! f64 * Bolsig+ C2H5 -> CH2 CH3^+
e + C2H5 => e + e + CH3 + CH2^+		! f65 * Bolsig+ C2H5 -> CH3 CH2^+
e + C2H5 => e + e + CH4 + CH^+		! f66 * Bolsig+ C2H5 -> CH4 CH^+
e + C2H4 => e + e + C2H4^+		! f67 * Bolsig+ C2H4 -> C2H4^+
e + C2H4(v1) => e + e + C2H4^+		! f67 * Bolsig+ C2H4(v1) -> C2H4^+
e + C2H4(v2) => e + e + C2H4^+		! f67 * Bolsig+ C2H4(v2) -> C2H4^+
e + C2H4 => e + e + H + C2H3^+		! f68 * Bolsig+ C2H4 -> H C2H3^+
e + C2H4(v1) => e + e + H + C2H3^+		! f68 * Bolsig+ C2H4(v1) -> H C2H3^+
e + C2H4(v2) => e + e + H + C2H3^+		! f68 * Bolsig+ C2H4(v2) -> H C2H3^+
e + C2H4 => e + e + CH + CH3^+		! f69 * Bolsig+ C2H4 -> CH CH3^+
e + C2H4(v1) => e + e + CH + CH3^+		! f69 * Bolsig+ C2H4(v1) -> CH CH3^+
e + C2H4(v2) => e + e + CH + CH3^+		! f69 * Bolsig+ C2H4(v2) -> CH CH3^+
e + C2H4 => e + e + CH2 + CH2^+		! f70 * Bolsig+ C2H4 -> CH2 CH2^+
e + C2H4(v1) => e + e + CH2 + CH2^+		! f70 * Bolsig+ C2H4(v1) -> CH2 CH2^+
e + C2H4(v2) => e + e + CH2 + CH2^+		! f70 * Bolsig+ C2H4(v2) -> CH2 CH2^+
e + C2H4 => e + e + CH3 + CH^+		! f71 * Bolsig+ C2H4 -> CH3 CH^+
e + C2H4(v1) => e + e + CH3 + CH^+		! f71 * Bolsig+ C2H4(v1) -> CH3 CH^+
e + C2H4(v2) => e + e + CH3 + CH^+		! f71 * Bolsig+ C2H4(v2) -> CH3 CH^+
e + C2H3 => e + e + C2H3^+		! f72 * Bolsig+ C2H3 -> C2H3^+
e + C2H3 => e + e + H + C2H2^+		! f73 * Bolsig+ C2H3 -> H C2H2^+
e + C2H3 => e + e + CH + CH2^+		! f74 * Bolsig+ C2H3 -> CH CH2^+
e + C2H3 => e + e + CH2 + CH^+		! f75 * Bolsig+ C2H3 -> CH2 CH^+
e + C2H3 => e + e + C2H2 + H^+		! f76 * Bolsig+ C2H3 -> C2H2 H^+
e + C2H2 => e + e + C2H2^+		! f77 * Bolsig+ C2H2 -> C2H2^+
e + C2H2(v5) => e + e + C2H2^+		! f77 * Bolsig+ C2H2(v5) -> C2H2^+
e + C2H2(v2) => e + e + C2H2^+		! f77 * Bolsig+ C2H2(v2) -> C2H2^+
e + C2H2(v13) => e + e + C2H2^+		! f77 * Bolsig+ C2H2(v13) -> C2H2^+
e + C2H2 => e + e + CH + CH^+		! f78 * Bolsig+ C2H2 -> CH CH^+
e + C2H2(v5) => e + e + CH + CH^+		! f78 * Bolsig+ C2H2(v5) -> CH CH^+
e + C2H2(v2) => e + e + CH + CH^+		! f78 * Bolsig+ C2H2(v2) -> CH CH^+
e + C2H2(v13) => e + e + CH + CH^+		! f78 * Bolsig+ C2H2(v13) -> CH CH^+
e + C3H8 => e + C3H7 + H		! f79 * Bolsig+ C3H8 -> C3H7 H
e + C3H8(v1) => e + C3H7 + H		! f79 * Bolsig+ C3H8(v1) -> C3H7 H
e + C3H8(v2) => e + C3H7 + H		! f79 * Bolsig+ C3H8(v2) -> C3H7 H
e + C3H8 => e + C3H6 + H2		! f80 * Bolsig+ C3H8 -> C3H6 H2
e + C3H8(v1) => e + C3H6 + H2		! f80 * Bolsig+ C3H8(v1) -> C3H6 H2
e + C3H8(v2) => e + C3H6 + H2		! f80 * Bolsig+ C3H8(v2) -> C3H6 H2
e + C3H7 => e + C3H6 + H		! f81 * Bolsig+ C3H7 -> C3H6 H
e + C3H8 => e + e + C3H8^+		! f82 * Bolsig+ C3H8 -> C3H8^+
e + C3H8(v1) => e + e + C3H8^+		! f82 * Bolsig+ C3H8(v1) -> C3H8^+
e + C3H8(v2) => e + e + C3H8^+		! f82 * Bolsig+ C3H8(v2) -> C3H8^+
e + C3H8 => e + e + H + C3H7^+		! f83 * Bolsig+ C3H8 -> H C3H7^+
e + C3H8(v1) => e + e + H + C3H7^+		! f83 * Bolsig+ C3H8(v1) -> H C3H7^+
e + C3H8(v2) => e + e + H + C3H7^+		! f83 * Bolsig+ C3H8(v2) -> H C3H7^+
e + C3H8 => e + e + H2 + C3H6^+		! f84 * Bolsig+ C3H8 -> H2 C3H6^+
e + C3H8(v1) => e + e + H2 + C3H6^+		! f84 * Bolsig+ C3H8(v1) -> H2 C3H6^+
e + C3H8(v2) => e + e + H2 + C3H6^+		! f84 * Bolsig+ C3H8(v2) -> H2 C3H6^+
e + C3H7 => e + e + C3H7^+		! f85 * Bolsig+ C3H7 -> C3H7^+
e + C3H7 => e + e + H + C3H6^+		! f86 * Bolsig+ C3H7 -> H C3H6^+
e + C3H6 => e + e + C3H6^+		! f87 * Bolsig+ C3H6 -> C3H6^+
e + C3H6(v) => e + e + C3H6^+		! f87 * Bolsig+ C3H6(v) -> C3H6^+
e + C3H6 => e + C2H2 + CH4		! f88 * Bolsig+ C3H6 -> C2H2 CH4
e + C3H6(v) => e + C2H2 + CH4		! f88 * Bolsig+ C3H6(v) -> C2H2 CH4
e + C3H6 => e + e + C2H2 + CH4^+		! f89 * Bolsig+ C3H6 -> C2H2 CH4^+
e + C3H6(v) => e + e + C2H2 + CH4^+		! f89 * Bolsig+ C3H6(v) -> C2H2 CH4^+

# Ion Recombination Reaction
e + e + CH^+ => e + CH		! f90 * 1.00d0
e + e + CH2^+ => e + CH2		! f91 * 1.00d0
e + e + CH3^+ => e + CH3		! f92 * 1.00d0
e + e + CH4^+ => e + CH4		! f93 * 1.00d0
e + e + C2H2^+ => e + C2H2		! f94 * 1.00d0
e + e + C2H3^+ => e + C2H3		! f95 * 1.00d0
e + e + C2H4^+ => e + C2H4		! f96 * 1.00d0
e + e + C2H5^+ => e + C2H5		! f97 * 1.00d0
e + e + C2H6^+ => e + C2H6		! f98 * 1.00d0
e + e + C3H6^+ => e + C3H6		! f99 * 1.00d0
e + e + C3H7^+ => e + C3H7		! f100 * 1.00d0
e + e + C3H8^+ => e + C3H8		! f101 * 1.00d0

# Gas Phase Reaction
e + CH4^+ => CH3 + H		! f102 * 1.18d-08 * (300./Tgas)**0.5
e + CH4^+ => CH2 + H + H		! f103 * 2.42d-08 * (300./Tgas)**0.5
e + CH4^+ => CH + H2 + H		! f104 * 1.41d-08 * (300./Tgas)**0.5
e + CH3^+ => CH2 + H		! f105 * 2.25d-08 * (300./Tgas)**0.5
e + CH3^+ => CH + H2		! f106 * 7.88d-09 * (300./Tgas)**0.5
e + CH3^+ => CH + H + H		! f107 * 9.00d-09 * (300./Tgas)**0.5
e + CH3^+ => C + H2 + H		! f108 * 1.69d-08 * (300./Tgas)**0.5
e + CH2^+ => CH + H		! f109 * 1.00d-08 * (300./Tgas)**0.5
e + CH2^+ => C + H2		! f110 * 4.82d-09 * (300./Tgas)**0.5
e + CH2^+ => C + H + H		! f111 * 2.53d-08 * (300./Tgas)**0.5
e + CH^+ => C + H		! f112 * 3.23d-08 * (300./Tgas)**0.42
e + C2H6^+ => C2H5 + H		! f113 * 2.19d-08 * (300./Tgas)**0.71
e + C2H6^+ => C2H4 + H + H		! f114 * 3.36d-08 * (300./Tgas)**0.71
e + C2H5^+ => C2H4 + H		! f115 * 7.70d-09 * (300./Tgas)**0.71
e + C2H5^+ => C2H3 + H + H		! f116 * 1.92d-08 * (300./Tgas)**0.71
e + C2H5^+ => C2H2 + H2 + H		! f117 * 1.60d-08 * (300./Tgas)**0.71
e + C2H5^+ => C2H2 + H + H + H		! f118 * 8.98d-09 * (300./Tgas)**0.71
e + C2H5^+ => CH3 + CH2		! f119 * 9.62d-09 * (300./Tgas)**0.71
e + C2H4^+ => C2H3 + H		! f120 * 8.29d-09 * (300./Tgas)**0.71
e + C2H4^+ => C2H2 + H + H		! f121 * 3.43d-08 * (300./Tgas)**0.71
e + C2H3^+ => C2H2 + H		! f122 * 1.34d-08 * (300./Tgas)**0.71
e + C2H2^+ => CH + CH		! f123 * 4.87d-09 * (300./Tgas)**0.71
e + H2^+ => H + H		! f124 * 3.17d21/(6.022d23 * Te**4.5)
e + H3^+ => H + H2		! f125 * 3.17d21/(6.022d23 * Te**4.5)
H2 + H2^+ => H + H3^+		! f126 * 2.11d-09
C2H6 + CH4^+ => CH4 + H2 + C2H4^+		! f127 * 1.91d-9
C2H6(v24) + CH4^+ => CH4 + H2 + C2H4^+		! f127 * 1.91d-9
C2H6(v13) + CH4^+ => CH4 + H2 + C2H4^+		! f127 * 1.91d-9
C2H4 + CH4^+ => CH3 + C2H5^+		! f128 * 4.23d-10