ELEMENTS
e C H
END

SPECIES
e C CH CH^+ CH2 CH2^+ CH3 CH3^+ CH4 CH4(v13) CH4(v24) CH4^+ C2H2 C2H2(v13) C2H2(v2) C2H2(v5) C2H2^+ C2H3 C2H3^+ C2H4 C2H4(v1) C2H4(v2) C2H4^+ C2H5 C2H5^+
C2H6 C2H6(v13) C2H6(v24) C2H6^+ C3H5 C3H6 C3H6(v) C3H6^+ C3H7 C3H7^+ C3H8 C3H8(v1) C3H8(v2) C3H8^+ C4H9 C4H9H C2H C5H12 H H2 H2^+ H3^+ H^+
END

BOLSIG
CH CH2 CH3 CH4 CH4(v13) CH4(v24) C2H2 C2H2(v13) C2H2(v2) C2H2(v5) C2H3 C2H4 C2H4(v1) C2H4(v2) C2H5 C2H6 C2H6(v13) C2H6(v24) C3H6 C3H6(v) C3H7 C3H8 C3H8(v1) C3H8(v2)
END

REACTIONS
# Gas Constant
$ double precision, parameter :: R = 8.314d-3

# Compensation Parameters
$ double precision, parameter :: f0 = 2.5775d-4
$ double precision, parameter :: f1 = 3.6213d-1
$ double precision, parameter :: f2 = 2.2077d-1
$ double precision, parameter :: f3 = 3.2994d+2
$ double precision, parameter :: f4 = 4.1461d-4
$ double precision, parameter :: f5 = 1.8176d-8
$ double precision, parameter :: f6 = 1.0109d-8
$ double precision, parameter :: f7 = 1.2398d+1
$ double precision, parameter :: f8 = 2.5160d-2
$ double precision, parameter :: f9 = 2.2183d-8
$ double precision, parameter :: f10 = 3.6523d-7
$ double precision, parameter :: f11 = 5.3509d+2
$ double precision, parameter :: f12 = 4.4854d-7
$ double precision, parameter :: f13 = 2.7476d-5
$ double precision, parameter :: f14 = 1.1127d-8
$ double precision, parameter :: f15 = 4.4688d-7
$ double precision, parameter :: f16 = 2.2325d+2
$ double precision, parameter :: f17 = 1.9272d-2
$ double precision, parameter :: f18 = 2.1272d-7
$ double precision, parameter :: f19 = 1.8782d-6
$ double precision, parameter :: f20 = 8.1656d-2
$ double precision, parameter :: f21 = 5.2246d-7
$ double precision, parameter :: f22 = 1.4763d0
$ double precision, parameter :: f23 = 5.7479d0
$ double precision, parameter :: f24 = 1.3238d0
$ double precision, parameter :: f25 = 9.7750d0
$ double precision, parameter :: f26 = 2.3810d-3
$ double precision, parameter :: f27 = 1.6621d+2
$ double precision, parameter :: f28 = 3.0326d-4
$ double precision, parameter :: f29 = 3.6671d+1
$ double precision, parameter :: f30 = 3.7340d-3
$ double precision, parameter :: f31 = 8.1681d-6
$ double precision, parameter :: f32 = 1.3826d-7
$ double precision, parameter :: f33 = 1.7990d-1
$ double precision, parameter :: f34 = 1.6303d-4
$ double precision, parameter :: f35 = 4.5281d0
$ double precision, parameter :: f36 = 3.5715d-2
$ double precision, parameter :: f37 = 1.3467d0
$ double precision, parameter :: f38 = 5.5335d+2
$ double precision, parameter :: f39 = 5.0564d0
$ double precision, parameter :: f40 = 5.2178d-6
$ double precision, parameter :: f41 = 3.4230d-3
$ double precision, parameter :: f42 = 5.5469d-7
$ double precision, parameter :: f43 = 2.0014d-5
$ double precision, parameter :: f44 = 1.3178d-3
$ double precision, parameter :: f45 = 2.3238d0
$ double precision, parameter :: f46 = 2.9051d+1
$ double precision, parameter :: f47 = 2.6644d-8
$ double precision, parameter :: f48 = 4.5880d-7
$ double precision, parameter :: f49 = 1.9259d-5
$ double precision, parameter :: f50 = 2.0304d-2
$ double precision, parameter :: f51 = 1.1970d-5
$ double precision, parameter :: f52 = 1.1661d-7
$ double precision, parameter :: f53 = 6.1472d+1
$ double precision, parameter :: f54 = 3.2901d-5
$ double precision, parameter :: f55 = 3.0246d-8
$ double precision, parameter :: f56 = 1.0252d+2
$ double precision, parameter :: f57 = 1.1802d-1
$ double precision, parameter :: f58 = 3.6800d+2
$ double precision, parameter :: f59 = 2.5440d-1
$ double precision, parameter :: f60 = 2.5501d-4
$ double precision, parameter :: f61 = 3.2597d0
$ double precision, parameter :: f62 = 9.0643d-5
$ double precision, parameter :: f63 = 1.4949d-5
$ double precision, parameter :: f64 = 2.5402d+1
$ double precision, parameter :: f65 = 1.4156d+2
$ double precision, parameter :: f66 = 5.9063d-2
$ double precision, parameter :: f67 = 2.4199d-3
$ double precision, parameter :: f68 = 4.8408d+1
$ double precision, parameter :: f69 = 2.0930d0
$ double precision, parameter :: f70 = 3.0288d-6
$ double precision, parameter :: f71 = 1.3271d-5
$ double precision, parameter :: f72 = 3.3521d-1
$ double precision, parameter :: f73 = 9.8660d-5
$ double precision, parameter :: f74 = 7.6758d+2
$ double precision, parameter :: f75 = 1.9659d-1
$ double precision, parameter :: f76 = 1.0330d-4
$ double precision, parameter :: f77 = 2.5591d0
$ double precision, parameter :: f78 = 2.3068d-1
$ double precision, parameter :: f79 = 4.1434d-6
$ double precision, parameter :: f80 = 8.1947d-2
$ double precision, parameter :: f81 = 4.7540d-5
$ double precision, parameter :: f82 = 1.2945d-5
$ double precision, parameter :: f83 = 3.4306d+2
$ double precision, parameter :: f84 = 7.0755d-3
$ double precision, parameter :: f85 = 1.3404d-2
$ double precision, parameter :: f86 = 2.4285d-6
$ double precision, parameter :: f87 = 2.4980d-5
$ double precision, parameter :: f88 = 1.0531d-5
$ double precision, parameter :: f89 = 6.0081d-3
$ double precision, parameter :: f90 = 2.9060d-8
$ double precision, parameter :: f91 = 4.0183d+2
$ double precision, parameter :: f92 = 6.1791d-1
$ double precision, parameter :: f93 = 3.0932d-5
$ double precision, parameter :: f94 = 3.1758d0
$ double precision, parameter :: f95 = 1.2569d-4
$ double precision, parameter :: f96 = 1.0901d-4
$ double precision, parameter :: f97 = 9.5663d-6
$ double precision, parameter :: f98 = 1.6351d+1
$ double precision, parameter :: f99 = 6.3156d-4
$ double precision, parameter :: f100 = 1.2727d-8
$ double precision, parameter :: f101 = 8.1861d-3
$ double precision, parameter :: f102 = 3.4828d+1
$ double precision, parameter :: f103 = 2.2298d-2
$ double precision, parameter :: f104 = 4.6020d-8
$ double precision, parameter :: f105 = 1.2499d-6
$ double precision, parameter :: f106 = 6.0877d-4
$ double precision, parameter :: f107 = 2.6289d-2
$ double precision, parameter :: f108 = 2.1012d-5
$ double precision, parameter :: f109 = 2.4510d-7
$ double precision, parameter :: f110 = 1.5800d+2
$ double precision, parameter :: f111 = 1.4603d-1
$ double precision, parameter :: f112 = 3.0925d+2
$ double precision, parameter :: f113 = 1.7855d-5
$ double precision, parameter :: f114 = 7.8958d-2
$ double precision, parameter :: f115 = 5.2564d+2
$ double precision, parameter :: f116 = 5.3200d-1
$ double precision, parameter :: f117 = 6.8904d+1
$ double precision, parameter :: f118 = 1.4030d-1
$ double precision, parameter :: f119 = 1.0965d-6
$ double precision, parameter :: f120 = 1.1514d-8
$ double precision, parameter :: f121 = 2.2503d-3
$ double precision, parameter :: f122 = 1.3032d-1
$ double precision, parameter :: f123 = 2.2767d0
$ double precision, parameter :: f124 = 4.7182d+1
$ double precision, parameter :: f125 = 2.3182d-1
$ double precision, parameter :: f126 = 1.3075d-8
$ double precision, parameter :: f127 = 1.7017d-2
$ double precision, parameter :: f128 = 4.2009d-8
$ double precision, parameter :: f129 = 1.2144d+1
$ double precision, parameter :: f130 = 2.4546d-1
$ double precision, parameter :: f131 = 4.6625d-4
$ double precision, parameter :: f132 = 3.7264d0
$ double precision, parameter :: f133 = 7.5877d-7
$ double precision, parameter :: f134 = 1.5411d-2
$ double precision, parameter :: f135 = 8.5474d-3
$ double precision, parameter :: f136 = 4.7435d-3
$ double precision, parameter :: f137 = 3.2042d-6
$ double precision, parameter :: f138 = 3.6798d+2
$ double precision, parameter :: f139 = 6.0384d-1
$ double precision, parameter :: f140 = 9.6488d-8
$ double precision, parameter :: f141 = 6.7607d-4
$ double precision, parameter :: f142 = 1.9411d+1
$ double precision, parameter :: f143 = 4.5449d-2
$ double precision, parameter :: f144 = 3.1177d+1
$ double precision, parameter :: f145 = 9.4520d+1
$ double precision, parameter :: f146 = 1.2954d-5
$ double precision, parameter :: f147 = 1.0312d-7
$ double precision, parameter :: f148 = 3.7915d-1
$ double precision, parameter :: f149 = 8.6806d-2
$ double precision, parameter :: f150 = 6.6184d+1
$ double precision, parameter :: f151 = 1.1358d-1
$ double precision, parameter :: f152 = 4.6928d-1
$ double precision, parameter :: f153 = 2.9634d-3
$ double precision, parameter :: f154 = 2.8722d+1
$ double precision, parameter :: f155 = 3.8532d+1
$ double precision, parameter :: f156 = 1.4228d-8
$ double precision, parameter :: f157 = 1.0074d-5
$ double precision, parameter :: f158 = 1.5325d0
$ double precision, parameter :: f159 = 4.4109d-4
$ double precision, parameter :: f160 = 1.0919d+2
$ double precision, parameter :: f161 = 1.6210d-2
$ double precision, parameter :: f162 = 4.8822d-8
$ double precision, parameter :: f163 = 3.7330d0
$ double precision, parameter :: f164 = 1.7528d-2
$ double precision, parameter :: f165 = 5.5652d-4
$ double precision, parameter :: f166 = 3.6162d-7
$ double precision, parameter :: f167 = 1.0361d-1
$ double precision, parameter :: f168 = 1.5087d-3
$ double precision, parameter :: f169 = 6.8636d0
$ double precision, parameter :: f170 = 8.5626d-7
$ double precision, parameter :: f171 = 4.1119d-7
$ double precision, parameter :: f172 = 8.9904d-4
$ double precision, parameter :: f173 = 3.9797d-5
$ double precision, parameter :: f174 = 7.8419d-4
$ double precision, parameter :: f175 = 1.9298d-4
$ double precision, parameter :: f176 = 1.7421d-3
$ double precision, parameter :: f177 = 2.2407d-7
$ double precision, parameter :: f178 = 1.6370d+2
$ double precision, parameter :: f179 = 1.8510d-6
$ double precision, parameter :: f180 = 7.2665d-1
$ double precision, parameter :: f181 = 1.6240d-8
$ double precision, parameter :: f182 = 1.6279d-6
$ double precision, parameter :: f183 = 1.3304d-8
$ double precision, parameter :: f184 = 4.5457d-4
$ double precision, parameter :: f185 = 3.0693d0
$ double precision, parameter :: f186 = 2.2008d-4
$ double precision, parameter :: f187 = 1.0244d0
$ double precision, parameter :: f188 = 4.5883d-2
$ double precision, parameter :: f189 = 2.7789d-2
$ double precision, parameter :: f190 = 1.1820d+2
$ double precision, parameter :: f191 = 2.0474d+1
$ double precision, parameter :: f192 = 5.2041d+1
$ double precision, parameter :: f193 = 1.1244d-5
$ double precision, parameter :: f194 = 1.4920d-5
$ double precision, parameter :: f195 = 4.9435d0
$ double precision, parameter :: f196 = 1.1270d-7
$ double precision, parameter :: f197 = 7.0623d-1
$ double precision, parameter :: f198 = 4.9324d-8
$ double precision, parameter :: f199 = 3.3240d-6
$ double precision, parameter :: f200 = 2.5565d-5
$ double precision, parameter :: f201 = 3.3633d-1
$ double precision, parameter :: f202 = 1.5187d-8
$ double precision, parameter :: f203 = 1.0067d-4
$ double precision, parameter :: f204 = 1.3438d-3
$ double precision, parameter :: f205 = 1.8879d+2
$ double precision, parameter :: f206 = 7.0832d-6
$ double precision, parameter :: f207 = 1.2878d-6
$ double precision, parameter :: f208 = 4.3509d-2
$ double precision, parameter :: f209 = 3.5528d-4
$ double precision, parameter :: f210 = 6.9044d-3
$ double precision, parameter :: f211 = 1.8629d-2
$ double precision, parameter :: f212 = 6.4055d-8
$ double precision, parameter :: f213 = 3.0471d-7
$ double precision, parameter :: f214 = 1.1999d-4
$ double precision, parameter :: f215 = 8.6149d-6
$ double precision, parameter :: f216 = 1.4451d-4
$ double precision, parameter :: f217 = 8.1880d-3
$ double precision, parameter :: f218 = 4.9533d+1
$ double precision, parameter :: f219 = 1.0232d+2
$ double precision, parameter :: f220 = 7.0362d+1
$ double precision, parameter :: f221 = 1.8334d+2
$ double precision, parameter :: f222 = 5.6422d-6
$ double precision, parameter :: f223 = 1.4535d+2
$ double precision, parameter :: f224 = 1.2621d+1
$ double precision, parameter :: f225 = 1.9911d+2
$ double precision, parameter :: f226 = 8.2425d+1
$ double precision, parameter :: f227 = 6.1986d-5
$ double precision, parameter :: f228 = 3.2289d-6
$ double precision, parameter :: f229 = 8.6720d-7
$ double precision, parameter :: f230 = 1.7608d-8
$ double precision, parameter :: f231 = 2.9946d-7
$ double precision, parameter :: f232 = 4.3522d-5
$ double precision, parameter :: f233 = 3.5295d0
$ double precision, parameter :: f234 = 2.7131d-3
$ double precision, parameter :: f235 = 8.8617d+2
$ double precision, parameter :: f236 = 1.5970d-4
$ double precision, parameter :: f237 = 4.9928d-4
$ double precision, parameter :: f238 = 9.5770d+2
$ double precision, parameter :: f239 = 1.6190d-5
$ double precision, parameter :: f240 = 5.7972d+1
$ double precision, parameter :: f241 = 1.0937d+1
$ double precision, parameter :: f242 = 6.0230d+2
$ double precision, parameter :: f243 = 7.8777d-1
$ double precision, parameter :: f244 = 1.7950d0
$ double precision, parameter :: f245 = 1.3294d+2
$ double precision, parameter :: f246 = 3.0096d-1
$ double precision, parameter :: f247 = 1.4428d-6
$ double precision, parameter :: f248 = 9.2693d+1
$ double precision, parameter :: f249 = 2.7656d+1
$ double precision, parameter :: f250 = 2.3172d-1
$ double precision, parameter :: f251 = 3.9901d-2
$ double precision, parameter :: f252 = 5.5921d-8
$ double precision, parameter :: f253 = 1.4188d+1
$ double precision, parameter :: f254 = 1.6724d-3
$ double precision, parameter :: f255 = 1.5712d-2
$ double precision, parameter :: f256 = 4.4122d-3
$ double precision, parameter :: f257 = 2.7160d+2
$ double precision, parameter :: f258 = 6.1913d-4
$ double precision, parameter :: f259 = 5.4744d-4
$ double precision, parameter :: f260 = 6.6956d-6
$ double precision, parameter :: f261 = 2.4619d+1
$ double precision, parameter :: f262 = 3.3913d-8
$ double precision, parameter :: f263 = 8.8278d+1
$ double precision, parameter :: f264 = 9.4992d-4
$ double precision, parameter :: f265 = 1.3307d-6
$ double precision, parameter :: f266 = 3.6018d-6
$ double precision, parameter :: f267 = 4.0295d-3
$ double precision, parameter :: f268 = 6.7237d-2
$ double precision, parameter :: f269 = 1.1087d0
$ double precision, parameter :: f270 = 8.5726d-8
$ double precision, parameter :: f271 = 9.2932d+2
$ double precision, parameter :: f272 = 5.4094d-1
$ double precision, parameter :: f273 = 7.4628d-5
$ double precision, parameter :: f274 = 2.3087d0
$ double precision, parameter :: f275 = 2.5911d-7
$ double precision, parameter :: f276 = 2.2217d-7
$ double precision, parameter :: f277 = 7.9438d+2
$ double precision, parameter :: f278 = 5.9011d-4
$ double precision, parameter :: f279 = 1.9521d0
$ double precision, parameter :: f280 = 3.4581d-8
$ double precision, parameter :: f281 = 5.1314d+2
$ double precision, parameter :: f282 = 3.6512d+2
$ double precision, parameter :: f283 = 2.0090d-2
$ double precision, parameter :: f284 = 7.6798d-2
$ double precision, parameter :: f285 = 1.0293d-5
$ double precision, parameter :: f286 = 8.7964d-4
$ double precision, parameter :: f287 = 7.0977d-6
$ double precision, parameter :: f288 = 1.9489d-8
$ double precision, parameter :: f289 = 8.4334d-3
$ double precision, parameter :: f290 = 1.6617d-3
$ double precision, parameter :: f291 = 1.3199d-8
$ double precision, parameter :: f292 = 1.2285d-4
$ double precision, parameter :: f293 = 1.9298d-2
$ double precision, parameter :: f294 = 1.7602d-5
$ double precision, parameter :: f295 = 5.3703d-3
$ double precision, parameter :: f296 = 2.7727d-8
$ double precision, parameter :: f297 = 1.0647d0
$ double precision, parameter :: f298 = 4.0297d+2
$ double precision, parameter :: f299 = 1.0563d-7
$ double precision, parameter :: f300 = 2.4741d-6
$ double precision, parameter :: f301 = 3.9758d-2
$ double precision, parameter :: f302 = 1.5736d+2
$ double precision, parameter :: f303 = 5.3708d+2
$ double precision, parameter :: f304 = 2.0678d-4
$ double precision, parameter :: f305 = 5.8329d-4
$ double precision, parameter :: f306 = 3.9093d-5
$ double precision, parameter :: f307 = 1.0617d-3
$ double precision, parameter :: f308 = 3.9499d+1
$ double precision, parameter :: f309 = 7.6987d0
$ double precision, parameter :: f310 = 7.3695d-3
$ double precision, parameter :: f311 = 1.7466d-6
$ double precision, parameter :: f312 = 6.0276d+1
$ double precision, parameter :: f313 = 3.2697d-3
$ double precision, parameter :: f314 = 1.1153d-4
$ double precision, parameter :: f315 = 1.1641d-6

# Electron Collision Reaction
e + CH4 => e + CH4(v24)		! f0 * Bolsig+ CH4 -> CH4(v24)
e + CH4 => e + CH4(v13)		! f1 * Bolsig+ CH4 -> CH4(v13)
e + C2H6 => e + C2H6(v24)		! f2 * Bolsig+ C2H6 -> C2H6(v24)
e + C2H6 => e + C2H6(v13)		! f3 * Bolsig+ C2H6 -> C2H6(v13)
e + C2H4 => e + C2H4(v1)		! f4 * Bolsig+ C2H4 -> C2H4(v1)
e + C2H4 => e + C2H4(v2)		! f5 * Bolsig+ C2H4 -> C2H4(v2)
e + C2H2 => e + C2H2(v5)		! f6 * Bolsig+ C2H2 -> C2H2(v5)
e + C2H2 => e + C2H2(v2)		! f7 * Bolsig+ C2H2 -> C2H2(v2)
e + C2H2 => e + C2H2(v13)		! f8 * Bolsig+ C2H2 -> C2H2(v13)
e + C3H8 => e + C3H8(v1)		! f9 * Bolsig+ C3H8 -> C3H8(v1)
e + C3H8 => e + C3H8(v2)		! f10 * Bolsig+ C3H8 -> C3H8(v2)
e + C3H6 => e + C3H6(v)		! f11 * Bolsig+ C3H6 -> C3H6(v)
e + CH4 => e + CH3 + H		! f12 * Bolsig+ CH4 -> CH3 H
e + CH4(v24) => e + CH3 + H		! f12 * Bolsig+ CH4(v24) -> CH3 H
e + CH4(v13) => e + CH3 + H		! f12 * Bolsig+ CH4(v13) -> CH3 H
e + CH4 => e + CH2 + H2		! f13 * Bolsig+ CH4 -> CH2 H2
e + CH4(v24) => e + CH2 + H2		! f13 * Bolsig+ CH4(v24) -> CH2 H2
e + CH4(v13) => e + CH2 + H2		! f13 * Bolsig+ CH4(v13) -> CH2 H2
e + CH4 => e + CH + H2 + H		! f14 * Bolsig+ CH4 -> CH H2 H
e + CH4(v24) => e + CH + H2 + H		! f14 * Bolsig+ CH4(v24) -> CH H2 H
e + CH4(v13) => e + CH + H2 + H		! f14 * Bolsig+ CH4(v13) -> CH H2 H
e + CH4 => e + C + H2 + H2		! f15 * Bolsig+ CH4 -> C H2 H2
e + CH4(v24) => e + C + H2 + H2		! f15 * Bolsig+ CH4(v24) -> C H2 H2
e + CH4(v13) => e + C + H2 + H2		! f15 * Bolsig+ CH4(v13) -> C H2 H2
e + CH3 => e + CH2 + H		! f16 * Bolsig+ CH3 -> CH2 H
e + CH3 => e + CH + H2		! f17 * Bolsig+ CH3 -> CH H2
e + CH3 => e + C + H2 + H		! f18 * Bolsig+ CH3 -> C H2 H
e + CH2 => e + CH + H		! f19 * Bolsig+ CH2 -> CH H
e + CH2 => e + C + H2		! f20 * Bolsig+ CH2 -> C H2
e + CH2 => e + C + H + H		! f21 * Bolsig+ CH2 -> C H H
e + CH => e + C + H		! f22 * Bolsig+ CH -> C H
e + CH4 => e + e + CH4^+		! f23 * Bolsig+ CH4 -> CH4^+
e + CH4(v24) => e + e + CH4^+		! f23 * Bolsig+ CH4(v24) -> CH4^+
e + CH4(v13) => e + e + CH4^+		! f23 * Bolsig+ CH4(v13) -> CH4^+
e + CH4 => e + e + H + CH3^+		! f24 * Bolsig+ CH4 -> H CH3^+
e + CH4(v24) => e + e + H + CH3^+		! f24 * Bolsig+ CH4(v24) -> H CH3^+
e + CH4(v13) => e + e + H + CH3^+		! f24 * Bolsig+ CH4(v13) -> H CH3^+
e + CH4 => e + e + H2 + CH2^+		! f25 * Bolsig+ CH4 -> H2 CH2^+
e + CH4(v24) => e + e + H2 + CH2^+		! f25 * Bolsig+ CH4(v24) -> H2 CH2^+
e + CH4(v13) => e + e + H2 + CH2^+		! f25 * Bolsig+ CH4(v13) -> H2 CH2^+
e + CH4 => e + e + H2 + H + CH^+		! f26 * Bolsig+ CH4 -> H2 H CH^+
e + CH4(v24) => e + e + H2 + H + CH^+		! f26 * Bolsig+ CH4(v24) -> H2 H CH^+
e + CH4(v13) => e + e + H2 + H + CH^+		! f26 * Bolsig+ CH4(v13) -> H2 H CH^+
e + CH3 => e + e + CH3^+		! f27 * Bolsig+ CH3 -> CH3^+
e + CH3 => e + e + H + CH2^+		! f28 * Bolsig+ CH3 -> H CH2^+
e + CH3 => e + e + H2 + CH^+		! f29 * Bolsig+ CH3 -> H2 CH^+
e + CH2 => e + e + CH2^+		! f30 * Bolsig+ CH2 -> CH2^+
e + CH2 => e + e + H + CH^+		! f31 * Bolsig+ CH2 -> H CH^+
e + CH => e + e + CH^+		! f32 * Bolsig+ CH -> CH^+
e + C2H6 => e + C2H5 + H		! f33 * Bolsig+ C2H6 -> C2H5 H
e + C2H6(v24) => e + C2H5 + H		! f33 * Bolsig+ C2H6(v24) -> C2H5 H
e + C2H6(v13) => e + C2H5 + H		! f33 * Bolsig+ C2H6(v13) -> C2H5 H
e + C2H6 => e + C2H4 + H2		! f34 * Bolsig+ C2H6 -> C2H4 H2
e + C2H6(v24) => e + C2H4 + H2		! f34 * Bolsig+ C2H6(v24) -> C2H4 H2
e + C2H6(v13) => e + C2H4 + H2		! f34 * Bolsig+ C2H6(v13) -> C2H4 H2
e + C2H6 => e + C2H3 + H2 + H		! f35 * Bolsig+ C2H6 -> C2H3 H2 H
e + C2H6(v24) => e + C2H3 + H2 + H		! f35 * Bolsig+ C2H6(v24) -> C2H3 H2 H
e + C2H6(v13) => e + C2H3 + H2 + H		! f35 * Bolsig+ C2H6(v13) -> C2H3 H2 H
e + C2H6 => e + C2H2 + H2 + H2		! f36 * Bolsig+ C2H6 -> C2H2 H2 H2
e + C2H6(v24) => e + C2H2 + H2 + H2		! f36 * Bolsig+ C2H6(v24) -> C2H2 H2 H2
e + C2H6(v13) => e + C2H2 + H2 + H2		! f36 * Bolsig+ C2H6(v13) -> C2H2 H2 H2
e + C2H6 => e + CH4 + CH2		! f37 * Bolsig+ C2H6 -> CH4 CH2
e + C2H6(v24) => e + CH4 + CH2		! f37 * Bolsig+ C2H6(v24) -> CH4 CH2
e + C2H6(v13) => e + CH4 + CH2		! f37 * Bolsig+ C2H6(v13) -> CH4 CH2
e + C2H6 => e + CH3 + CH3		! f38 * Bolsig+ C2H6 -> CH3 CH3
e + C2H6(v24) => e + CH3 + CH3		! f38 * Bolsig+ C2H6(v24) -> CH3 CH3
e + C2H6(v13) => e + CH3 + CH3		! f38 * Bolsig+ C2H6(v13) -> CH3 CH3
e + C2H5 => e + C2H4 + H		! f39 * Bolsig+ C2H5 -> C2H4 H
e + C2H5 => e + C2H3 + H2		! f40 * Bolsig+ C2H5 -> C2H3 H2
e + C2H5 => e + C2H3 + H + H		! f41 * Bolsig+ C2H5 -> C2H3 H H
e + C2H5 => e + C2H2 + H2 + H		! f42 * Bolsig+ C2H5 -> C2H2 H2 H
e + C2H5 => e + CH4 + CH		! f43 * Bolsig+ C2H5 -> CH4 CH
e + C2H5 => e + CH3 + CH2		! f44 * Bolsig+ C2H5 -> CH3 CH2
e + C2H4 => e + C2H3 + H		! f45 * Bolsig+ C2H4 -> C2H3 H
e + C2H4(v1) => e + C2H3 + H		! f45 * Bolsig+ C2H4(v1) -> C2H3 H
e + C2H4(v2) => e + C2H3 + H		! f45 * Bolsig+ C2H4(v2) -> C2H3 H
e + C2H4 => e + C2H2 + H2		! f46 * Bolsig+ C2H4 -> C2H2 H2
e + C2H4(v1) => e + C2H2 + H2		! f46 * Bolsig+ C2H4(v1) -> C2H2 H2
e + C2H4(v2) => e + C2H2 + H2		! f46 * Bolsig+ C2H4(v2) -> C2H2 H2
e + C2H4 => e + C2H2 + H + H		! f47 * Bolsig+ C2H4 -> C2H2 H H
e + C2H4(v1) => e + C2H2 + H + H		! f47 * Bolsig+ C2H4(v1) -> C2H2 H H
e + C2H4(v2) => e + C2H2 + H + H		! f47 * Bolsig+ C2H4(v2) -> C2H2 H H
e + C2H4 => e + CH3 + CH		! f48 * Bolsig+ C2H4 -> CH3 CH
e + C2H4(v1) => e + CH3 + CH		! f48 * Bolsig+ C2H4(v1) -> CH3 CH
e + C2H4(v2) => e + CH3 + CH		! f48 * Bolsig+ C2H4(v2) -> CH3 CH
e + C2H4 => e + CH2 + CH2		! f49 * Bolsig+ C2H4 -> CH2 CH2
e + C2H4(v1) => e + CH2 + CH2		! f49 * Bolsig+ C2H4(v1) -> CH2 CH2
e + C2H4(v2) => e + CH2 + CH2		! f49 * Bolsig+ C2H4(v2) -> CH2 CH2
e + C2H3 => e + C2H2 + H		! f50 * Bolsig+ C2H3 -> C2H2 H
e + C2H3 => e + CH2 + CH		! f51 * Bolsig+ C2H3 -> CH2 CH
e + C2H2 => e + CH + CH		! f52 * Bolsig+ C2H2 -> CH CH
e + C2H2(v5) => e + CH + CH		! f52 * Bolsig+ C2H2(v5) -> CH CH
e + C2H2(v2) => e + CH + CH		! f52 * Bolsig+ C2H2(v2) -> CH CH
e + C2H2(v13) => e + CH + CH		! f52 * Bolsig+ C2H2(v13) -> CH CH
e + C2H6 => e + e + C2H6^+		! f53 * Bolsig+ C2H6 -> C2H6^+
e + C2H6(v24) => e + e + C2H6^+		! f53 * Bolsig+ C2H6(v24) -> C2H6^+
e + C2H6(v13) => e + e + C2H6^+		! f53 * Bolsig+ C2H6(v13) -> C2H6^+
e + C2H6 => e + e + H + C2H5^+		! f54 * Bolsig+ C2H6 -> H C2H5^+
e + C2H6(v24) => e + e + H + C2H5^+		! f54 * Bolsig+ C2H6(v24) -> H C2H5^+
e + C2H6(v13) => e + e + H + C2H5^+		! f54 * Bolsig+ C2H6(v13) -> H C2H5^+
e + C2H6 => e + e + H2 + C2H4^+		! f55 * Bolsig+ C2H6 -> H2 C2H4^+
e + C2H6(v24) => e + e + H2 + C2H4^+		! f55 * Bolsig+ C2H6(v24) -> H2 C2H4^+
e + C2H6(v13) => e + e + H2 + C2H4^+		! f55 * Bolsig+ C2H6(v13) -> H2 C2H4^+
e + C2H6 => e + e + H2 + H + C2H3^+		! f56 * Bolsig+ C2H6 -> H2 H C2H3^+
e + C2H6(v24) => e + e + H2 + H + C2H3^+		! f56 * Bolsig+ C2H6(v24) -> H2 H C2H3^+
e + C2H6(v13) => e + e + H2 + H + C2H3^+		! f56 * Bolsig+ C2H6(v13) -> H2 H C2H3^+
e + C2H6 => e + e + H2 + H2 + C2H2^+		! f57 * Bolsig+ C2H6 -> H2 H2 C2H2^+
e + C2H6(v24) => e + e + H2 + H2 + C2H2^+		! f57 * Bolsig+ C2H6(v24) -> H2 H2 C2H2^+
e + C2H6(v13) => e + e + H2 + H2 + C2H2^+		! f57 * Bolsig+ C2H6(v13) -> H2 H2 C2H2^+
e + C2H6 => e + e + CH3 + CH3^+		! f58 * Bolsig+ C2H6 -> CH3 CH3^+
e + C2H6(v24) => e + e + CH3 + CH3^+		! f58 * Bolsig+ C2H6(v24) -> CH3 CH3^+
e + C2H6(v13) => e + e + CH3 + CH3^+		! f58 * Bolsig+ C2H6(v13) -> CH3 CH3^+
e + C2H6 => e + e + CH4 + CH2^+		! f59 * Bolsig+ C2H6 -> CH4 CH2^+
e + C2H6(v24) => e + e + CH4 + CH2^+		! f59 * Bolsig+ C2H6(v24) -> CH4 CH2^+
e + C2H6(v13) => e + e + CH4 + CH2^+		! f59 * Bolsig+ C2H6(v13) -> CH4 CH2^+
e + C2H5 => e + e + C2H5^+		! f60 * Bolsig+ C2H5 -> C2H5^+
e + C2H5 => e + e + H + C2H4^+		! f61 * Bolsig+ C2H5 -> H C2H4^+
e + C2H5 => e + e + H2 + C2H3^+		! f62 * Bolsig+ C2H5 -> H2 C2H3^+
e + C2H5 => e + e + H2 + H + C2H2^+		! f63 * Bolsig+ C2H5 -> H2 H C2H2^+
e + C2H5 => e + e + CH2 + CH3^+		! f64 * Bolsig+ C2H5 -> CH2 CH3^+
e + C2H5 => e + e + CH3 + CH2^+		! f65 * Bolsig+ C2H5 -> CH3 CH2^+
e + C2H5 => e + e + CH4 + CH^+		! f66 * Bolsig+ C2H5 -> CH4 CH^+
e + C2H4 => e + e + C2H4^+		! f67 * Bolsig+ C2H4 -> C2H4^+
e + C2H4(v1) => e + e + C2H4^+		! f67 * Bolsig+ C2H4(v1) -> C2H4^+
e + C2H4(v2) => e + e + C2H4^+		! f67 * Bolsig+ C2H4(v2) -> C2H4^+
e + C2H4 => e + e + H + C2H3^+		! f68 * Bolsig+ C2H4 -> H C2H3^+
e + C2H4(v1) => e + e + H + C2H3^+		! f68 * Bolsig+ C2H4(v1) -> H C2H3^+
e + C2H4(v2) => e + e + H + C2H3^+		! f68 * Bolsig+ C2H4(v2) -> H C2H3^+
e + C2H4 => e + e + CH + CH3^+		! f69 * Bolsig+ C2H4 -> CH CH3^+
e + C2H4(v1) => e + e + CH + CH3^+		! f69 * Bolsig+ C2H4(v1) -> CH CH3^+
e + C2H4(v2) => e + e + CH + CH3^+		! f69 * Bolsig+ C2H4(v2) -> CH CH3^+
e + C2H4 => e + e + CH2 + CH2^+		! f70 * Bolsig+ C2H4 -> CH2 CH2^+
e + C2H4(v1) => e + e + CH2 + CH2^+		! f70 * Bolsig+ C2H4(v1) -> CH2 CH2^+
e + C2H4(v2) => e + e + CH2 + CH2^+		! f70 * Bolsig+ C2H4(v2) -> CH2 CH2^+
e + C2H4 => e + e + CH3 + CH^+		! f71 * Bolsig+ C2H4 -> CH3 CH^+
e + C2H4(v1) => e + e + CH3 + CH^+		! f71 * Bolsig+ C2H4(v1) -> CH3 CH^+
e + C2H4(v2) => e + e + CH3 + CH^+		! f71 * Bolsig+ C2H4(v2) -> CH3 CH^+
e + C2H3 => e + e + C2H3^+		! f72 * Bolsig+ C2H3 -> C2H3^+
e + C2H3 => e + e + H + C2H2^+		! f73 * Bolsig+ C2H3 -> H C2H2^+
e + C2H3 => e + e + CH + CH2^+		! f74 * Bolsig+ C2H3 -> CH CH2^+
e + C2H3 => e + e + CH2 + CH^+		! f75 * Bolsig+ C2H3 -> CH2 CH^+
e + C2H3 => e + e + C2H2 + H^+		! f76 * Bolsig+ C2H3 -> C2H2 H^+
e + C2H2 => e + e + C2H2^+		! f77 * Bolsig+ C2H2 -> C2H2^+
e + C2H2(v5) => e + e + C2H2^+		! f77 * Bolsig+ C2H2(v5) -> C2H2^+
e + C2H2(v2) => e + e + C2H2^+		! f77 * Bolsig+ C2H2(v2) -> C2H2^+
e + C2H2(v13) => e + e + C2H2^+		! f77 * Bolsig+ C2H2(v13) -> C2H2^+
e + C2H2 => e + e + CH + CH^+		! f78 * Bolsig+ C2H2 -> CH CH^+
e + C2H2(v5) => e + e + CH + CH^+		! f78 * Bolsig+ C2H2(v5) -> CH CH^+
e + C2H2(v2) => e + e + CH + CH^+		! f78 * Bolsig+ C2H2(v2) -> CH CH^+
e + C2H2(v13) => e + e + CH + CH^+		! f78 * Bolsig+ C2H2(v13) -> CH CH^+
e + C3H8 => e + C3H7 + H		! f79 * Bolsig+ C3H8 -> C3H7 H
e + C3H8(v1) => e + C3H7 + H		! f79 * Bolsig+ C3H8(v1) -> C3H7 H
e + C3H8(v2) => e + C3H7 + H		! f79 * Bolsig+ C3H8(v2) -> C3H7 H
e + C3H8 => e + C3H6 + H2		! f80 * Bolsig+ C3H8 -> C3H6 H2
e + C3H8(v1) => e + C3H6 + H2		! f80 * Bolsig+ C3H8(v1) -> C3H6 H2
e + C3H8(v2) => e + C3H6 + H2		! f80 * Bolsig+ C3H8(v2) -> C3H6 H2
e + C3H7 => e + C3H6 + H		! f81 * Bolsig+ C3H7 -> C3H6 H
e + C3H8 => e + e + C3H8^+		! f82 * Bolsig+ C3H8 -> C3H8^+
e + C3H8(v1) => e + e + C3H8^+		! f82 * Bolsig+ C3H8(v1) -> C3H8^+
e + C3H8(v2) => e + e + C3H8^+		! f82 * Bolsig+ C3H8(v2) -> C3H8^+
e + C3H8 => e + e + H + C3H7^+		! f83 * Bolsig+ C3H8 -> H C3H7^+
e + C3H8(v1) => e + e + H + C3H7^+		! f83 * Bolsig+ C3H8(v1) -> H C3H7^+
e + C3H8(v2) => e + e + H + C3H7^+		! f83 * Bolsig+ C3H8(v2) -> H C3H7^+
e + C3H8 => e + e + H2 + C3H6^+		! f84 * Bolsig+ C3H8 -> H2 C3H6^+
e + C3H8(v1) => e + e + H2 + C3H6^+		! f84 * Bolsig+ C3H8(v1) -> H2 C3H6^+
e + C3H8(v2) => e + e + H2 + C3H6^+		! f84 * Bolsig+ C3H8(v2) -> H2 C3H6^+
e + C3H7 => e + e + C3H7^+		! f85 * Bolsig+ C3H7 -> C3H7^+
e + C3H7 => e + e + H + C3H6^+		! f86 * Bolsig+ C3H7 -> H C3H6^+
e + C3H6 => e + e + C3H6^+		! f87 * Bolsig+ C3H6 -> C3H6^+
e + C3H6(v) => e + e + C3H6^+		! f87 * Bolsig+ C3H6(v) -> C3H6^+
e + C3H6 => e + C2H2 + CH4		! f88 * Bolsig+ C3H6 -> C2H2 CH4
e + C3H6(v) => e + C2H2 + CH4		! f88 * Bolsig+ C3H6(v) -> C2H2 CH4
e + C3H6 => e + e + C2H2 + CH4^+		! f89 * Bolsig+ C3H6 -> C2H2 CH4^+
e + C3H6(v) => e + e + C2H2 + CH4^+		! f89 * Bolsig+ C3H6(v) -> C2H2 CH4^+

# Ion Recombination Reaction
e + e + CH^+ => e + CH		! f90 * 1.00d0
e + e + CH2^+ => e + CH2		! f91 * 1.00d0
e + e + CH3^+ => e + CH3		! f92 * 1.00d0
e + e + CH4^+ => e + CH4		! f93 * 1.00d0
e + e + C2H2^+ => e + C2H2		! f94 * 1.00d0
e + e + C2H3^+ => e + C2H3		! f95 * 1.00d0
e + e + C2H4^+ => e + C2H4		! f96 * 1.00d0
e + e + C2H5^+ => e + C2H5		! f97 * 1.00d0
e + e + C2H6^+ => e + C2H6		! f98 * 1.00d0
e + e + C3H6^+ => e + C3H6		! f99 * 1.00d0
e + e + C3H7^+ => e + C3H7		! f100 * 1.00d0
e + e + C3H8^+ => e + C3H8		! f101 * 1.00d0

# Gas Phase Reaction
e + CH4^+ => CH3 + H		! f102 * 1.18d-08 * (300./Tgas)**0.5
e + CH4^+ => CH2 + H + H		! f103 * 2.42d-08 * (300./Tgas)**0.5
e + CH4^+ => CH + H2 + H		! f104 * 1.41d-08 * (300./Tgas)**0.5
e + CH3^+ => CH2 + H		! f105 * 2.25d-08 * (300./Tgas)**0.5
e + CH3^+ => CH + H2		! f106 * 7.88d-09 * (300./Tgas)**0.5
e + CH3^+ => CH + H + H		! f107 * 9.00d-09 * (300./Tgas)**0.5
e + CH3^+ => C + H2 + H		! f108 * 1.69d-08 * (300./Tgas)**0.5
e + CH2^+ => CH + H		! f109 * 1.00d-08 * (300./Tgas)**0.5
e + CH2^+ => C + H2		! f110 * 4.82d-09 * (300./Tgas)**0.5
e + CH2^+ => C + H + H		! f111 * 2.53d-08 * (300./Tgas)**0.5
e + CH^+ => C + H		! f112 * 3.23d-08 * (300./Tgas)**0.42
e + C2H6^+ => C2H5 + H		! f113 * 2.19d-08 * (300./Tgas)**0.71
e + C2H6^+ => C2H4 + H + H		! f114 * 3.36d-08 * (300./Tgas)**0.71
e + C2H5^+ => C2H4 + H		! f115 * 7.70d-09 * (300./Tgas)**0.71
e + C2H5^+ => C2H3 + H + H		! f116 * 1.92d-08 * (300./Tgas)**0.71
e + C2H5^+ => C2H2 + H2 + H		! f117 * 1.60d-08 * (300./Tgas)**0.71
e + C2H5^+ => C2H2 + H + H + H		! f118 * 8.98d-09 * (300./Tgas)**0.71
e + C2H5^+ => CH3 + CH2		! f119 * 9.62d-09 * (300./Tgas)**0.71
e + C2H4^+ => C2H3 + H		! f120 * 8.29d-09 * (300./Tgas)**0.71
e + C2H4^+ => C2H2 + H + H		! f121 * 3.43d-08 * (300./Tgas)**0.71
e + C2H3^+ => C2H2 + H		! f122 * 1.34d-08 * (300./Tgas)**0.71
e + C2H2^+ => CH + CH		! f123 * 4.87d-09 * (300./Tgas)**0.71
e + H2^+ => H + H		! f124 * 3.17d21/(6.022d23 * Te**4.5)
e + H3^+ => H + H2		! f125 * 3.17d21/(6.022d23 * Te**4.5)
H2 + H2^+ => H + H3^+		! f126 * 2.11d-09
C2H6 + CH4^+ => CH4 + H2 + C2H4^+		! f127 * 1.91d-9
C2H6(v24) + CH4^+ => CH4 + H2 + C2H4^+		! f127 * 1.91d-9
C2H6(v13) + CH4^+ => CH4 + H2 + C2H4^+		! f127 * 1.91d-9
C2H4 + CH4^+ => CH3 + C2H5^+		! f128 * 4.23d-10