ELEMENTS
e C H
END

SPECIES
e C CH CH^+ CH2 CH2^+ CH3 CH3^+ CH4 CH4(v13) CH4(v24) CH4^+ C2H2 C2H2(v13) C2H2(v2) C2H2(v5) C2H2^+ C2H3 C2H3^+ C2H4 C2H4(v1) C2H4(v2) C2H4^+ C2H5 C2H5^+
C2H6 C2H6(v13) C2H6(v24) C2H6^+ C3H5 C3H6 C3H6(v) C3H6^+ C3H7 C3H7^+ C3H8 C3H8(v1) C3H8(v2) C3H8^+ C4H9 C4H9H C2H C5H12 H H2 H2^+ H3^+ H^+
END

BOLSIG
CH CH2 CH3 CH4 CH4(v13) CH4(v24) C2H2 C2H2(v13) C2H2(v2) C2H2(v5) C2H3 C2H4 C2H4(v1) C2H4(v2) C2H5 C2H6 C2H6(v13) C2H6(v24) C3H6 C3H6(v) C3H7 C3H8 C3H8(v1) C3H8(v2)
END

REACTIONS
# Gas Constant
$ double precision, parameter :: R = 8.314d-3

# Compensation Parameters
$ double precision, parameter :: f0 = 3.3540d0
$ double precision, parameter :: f1 = 3.8443d-5
$ double precision, parameter :: f2 = 3.0031d-5
$ double precision, parameter :: f3 = 1.4553d-3
$ double precision, parameter :: f4 = 9.6867d-3
$ double precision, parameter :: f5 = 1.0491d-1
$ double precision, parameter :: f6 = 9.0021d+2
$ double precision, parameter :: f7 = 1.1524d-2
$ double precision, parameter :: f8 = 2.3329d-3
$ double precision, parameter :: f9 = 5.5633d-2
$ double precision, parameter :: f10 = 5.7697d-2
$ double precision, parameter :: f11 = 3.3970d-1
$ double precision, parameter :: f12 = 2.8644d+1
$ double precision, parameter :: f13 = 7.3545d-6
$ double precision, parameter :: f14 = 1.8903d+2
$ double precision, parameter :: f15 = 5.1639d-6
$ double precision, parameter :: f16 = 4.9335d-8
$ double precision, parameter :: f17 = 4.5515d-6
$ double precision, parameter :: f18 = 2.8544d+1
$ double precision, parameter :: f19 = 6.1901d-7
$ double precision, parameter :: f20 = 1.3617d-1
$ double precision, parameter :: f21 = 1.2670d-8
$ double precision, parameter :: f22 = 1.6978d-3
$ double precision, parameter :: f23 = 5.5814d-5
$ double precision, parameter :: f24 = 4.0377d-4
$ double precision, parameter :: f25 = 3.3434d-3
$ double precision, parameter :: f26 = 5.5554d-1
$ double precision, parameter :: f27 = 5.6135d-8
$ double precision, parameter :: f28 = 1.3944d-5
$ double precision, parameter :: f29 = 5.2980d+2
$ double precision, parameter :: f30 = 2.0766d-8
$ double precision, parameter :: f31 = 1.4157d-7
$ double precision, parameter :: f32 = 5.6781d-4
$ double precision, parameter :: f33 = 7.8591d-8
$ double precision, parameter :: f34 = 1.5654d-1
$ double precision, parameter :: f35 = 1.5025d-2
$ double precision, parameter :: f36 = 5.6799d-1
$ double precision, parameter :: f37 = 1.9221d+1
$ double precision, parameter :: f38 = 4.6501d-1
$ double precision, parameter :: f39 = 1.7886d-2
$ double precision, parameter :: f40 = 1.0947d+2
$ double precision, parameter :: f41 = 8.3587d-1
$ double precision, parameter :: f42 = 3.5540d-1
$ double precision, parameter :: f43 = 2.8502d-6
$ double precision, parameter :: f44 = 1.0680d-5
$ double precision, parameter :: f45 = 1.5472d-5
$ double precision, parameter :: f46 = 3.4264d-6
$ double precision, parameter :: f47 = 2.9651d+1
$ double precision, parameter :: f48 = 1.0603d-5
$ double precision, parameter :: f49 = 5.9970d-1
$ double precision, parameter :: f50 = 9.0884d-2
$ double precision, parameter :: f51 = 8.6293d-7
$ double precision, parameter :: f52 = 7.7205d-6
$ double precision, parameter :: f53 = 7.1382d-2
$ double precision, parameter :: f54 = 3.9841d-8
$ double precision, parameter :: f55 = 7.7188d-1
$ double precision, parameter :: f56 = 2.9000d-3
$ double precision, parameter :: f57 = 5.9348d-7
$ double precision, parameter :: f58 = 9.9612d-5
$ double precision, parameter :: f59 = 7.8104d0
$ double precision, parameter :: f60 = 3.4281d-6
$ double precision, parameter :: f61 = 2.4943d0
$ double precision, parameter :: f62 = 7.6589d+2
$ double precision, parameter :: f63 = 3.8645d-2
$ double precision, parameter :: f64 = 9.5827d+2
$ double precision, parameter :: f65 = 2.8494d-3
$ double precision, parameter :: f66 = 4.0393d0
$ double precision, parameter :: f67 = 4.2166d+1
$ double precision, parameter :: f68 = 3.1893d-1
$ double precision, parameter :: f69 = 7.6196d-2
$ double precision, parameter :: f70 = 8.2091d+1
$ double precision, parameter :: f71 = 9.1877d-5
$ double precision, parameter :: f72 = 4.2165d-6
$ double precision, parameter :: f73 = 1.3932d-5
$ double precision, parameter :: f74 = 3.8812d+2
$ double precision, parameter :: f75 = 3.5908d+2
$ double precision, parameter :: f76 = 2.0862d-7
$ double precision, parameter :: f77 = 1.8253d0
$ double precision, parameter :: f78 = 6.9011d-7
$ double precision, parameter :: f79 = 4.2221d-7
$ double precision, parameter :: f80 = 2.3368d+2
$ double precision, parameter :: f81 = 9.0486d0
$ double precision, parameter :: f82 = 6.3629d-6
$ double precision, parameter :: f83 = 5.8926d+2
$ double precision, parameter :: f84 = 7.0128d-4
$ double precision, parameter :: f85 = 3.6058d-3
$ double precision, parameter :: f86 = 5.8504d-2
$ double precision, parameter :: f87 = 1.5524d-8
$ double precision, parameter :: f88 = 4.0795d-5
$ double precision, parameter :: f89 = 7.2487d-2
$ double precision, parameter :: f90 = 2.6845d0
$ double precision, parameter :: f91 = 2.0201d-8
$ double precision, parameter :: f92 = 2.2996d-7
$ double precision, parameter :: f93 = 4.1969d-1
$ double precision, parameter :: f94 = 1.1212d-3
$ double precision, parameter :: f95 = 2.9517d-7
$ double precision, parameter :: f96 = 1.0851d-3
$ double precision, parameter :: f97 = 9.5682d-3
$ double precision, parameter :: f98 = 3.8640d-3
$ double precision, parameter :: f99 = 9.0527d-7
$ double precision, parameter :: f100 = 4.5374d-4
$ double precision, parameter :: f101 = 7.2328d-5
$ double precision, parameter :: f102 = 1.4161d-8
$ double precision, parameter :: f103 = 1.0652d-5
$ double precision, parameter :: f104 = 3.1701d-5
$ double precision, parameter :: f105 = 2.0032d+2
$ double precision, parameter :: f106 = 1.8826d+2
$ double precision, parameter :: f107 = 4.4798d-2
$ double precision, parameter :: f108 = 1.8357d-2
$ double precision, parameter :: f109 = 9.5740d+1
$ double precision, parameter :: f110 = 6.3413d-7
$ double precision, parameter :: f111 = 1.2067d-2
$ double precision, parameter :: f112 = 3.9569d-6
$ double precision, parameter :: f113 = 6.2862d-3
$ double precision, parameter :: f114 = 4.8065d-5
$ double precision, parameter :: f115 = 6.8919d-5
$ double precision, parameter :: f116 = 3.5207d-2
$ double precision, parameter :: f117 = 5.9287d+2
$ double precision, parameter :: f118 = 1.2601d-7
$ double precision, parameter :: f119 = 3.7802d0
$ double precision, parameter :: f120 = 1.0496d-2
$ double precision, parameter :: f121 = 1.6614d-3
$ double precision, parameter :: f122 = 1.4455d-3
$ double precision, parameter :: f123 = 5.4249d-4
$ double precision, parameter :: f124 = 1.4752d-5
$ double precision, parameter :: f125 = 1.4588d+1
$ double precision, parameter :: f126 = 4.8633d-2
$ double precision, parameter :: f127 = 1.5940d+2
$ double precision, parameter :: f128 = 7.4920d-3
$ double precision, parameter :: f129 = 7.5193d0
$ double precision, parameter :: f130 = 3.9603d-5
$ double precision, parameter :: f131 = 6.5707d-5
$ double precision, parameter :: f132 = 3.7403d-1
$ double precision, parameter :: f133 = 8.9147d0
$ double precision, parameter :: f134 = 1.1870d-6
$ double precision, parameter :: f135 = 5.7497d-5
$ double precision, parameter :: f136 = 5.6686d-2
$ double precision, parameter :: f137 = 1.2786d-4
$ double precision, parameter :: f138 = 1.1917d-5
$ double precision, parameter :: f139 = 6.4359d+2
$ double precision, parameter :: f140 = 8.7060d0
$ double precision, parameter :: f141 = 2.4798d0
$ double precision, parameter :: f142 = 6.6681d+1
$ double precision, parameter :: f143 = 2.6076d-1
$ double precision, parameter :: f144 = 4.5350d-2
$ double precision, parameter :: f145 = 7.8367d-4
$ double precision, parameter :: f146 = 5.8567d-1
$ double precision, parameter :: f147 = 2.7186d-3
$ double precision, parameter :: f148 = 1.7863d-8
$ double precision, parameter :: f149 = 2.4191d-1
$ double precision, parameter :: f150 = 7.0765d0
$ double precision, parameter :: f151 = 7.8983d-6
$ double precision, parameter :: f152 = 1.1437d0
$ double precision, parameter :: f153 = 2.2646d-5
$ double precision, parameter :: f154 = 1.2255d0
$ double precision, parameter :: f155 = 4.6580d-5
$ double precision, parameter :: f156 = 1.5923d0
$ double precision, parameter :: f157 = 6.2437d+1
$ double precision, parameter :: f158 = 3.2518d+1
$ double precision, parameter :: f159 = 6.5477d-5
$ double precision, parameter :: f160 = 2.7084d-5
$ double precision, parameter :: f161 = 9.8078d-2
$ double precision, parameter :: f162 = 2.6676d-7
$ double precision, parameter :: f163 = 2.6483d-5
$ double precision, parameter :: f164 = 1.5296d+2
$ double precision, parameter :: f165 = 5.1302d-2
$ double precision, parameter :: f166 = 3.1875d-2
$ double precision, parameter :: f167 = 3.6546d-4
$ double precision, parameter :: f168 = 6.6641d-2
$ double precision, parameter :: f169 = 5.5079d-5
$ double precision, parameter :: f170 = 3.9068d-5
$ double precision, parameter :: f171 = 2.4820d+2
$ double precision, parameter :: f172 = 2.3599d-3
$ double precision, parameter :: f173 = 2.2267d-6
$ double precision, parameter :: f174 = 2.0935d-2
$ double precision, parameter :: f175 = 1.9496d-1
$ double precision, parameter :: f176 = 4.3710d-4
$ double precision, parameter :: f177 = 2.4740d-8
$ double precision, parameter :: f178 = 1.0588d-3
$ double precision, parameter :: f179 = 1.6033d-4
$ double precision, parameter :: f180 = 3.3278d0
$ double precision, parameter :: f181 = 2.4164d-3
$ double precision, parameter :: f182 = 2.2863d-8
$ double precision, parameter :: f183 = 9.5211d+2
$ double precision, parameter :: f184 = 2.2943d0
$ double precision, parameter :: f185 = 2.8327d+1
$ double precision, parameter :: f186 = 8.4992d-6
$ double precision, parameter :: f187 = 3.9328d-3
$ double precision, parameter :: f188 = 5.3747d-3
$ double precision, parameter :: f189 = 3.3296d-7
$ double precision, parameter :: f190 = 6.6943d-3
$ double precision, parameter :: f191 = 1.4347d-4
$ double precision, parameter :: f192 = 8.6618d-3
$ double precision, parameter :: f193 = 2.0475d-4
$ double precision, parameter :: f194 = 2.5007d-5
$ double precision, parameter :: f195 = 1.1169d-5
$ double precision, parameter :: f196 = 3.3701d-7
$ double precision, parameter :: f197 = 6.5268d-1
$ double precision, parameter :: f198 = 7.5851d-2
$ double precision, parameter :: f199 = 2.9932d+2
$ double precision, parameter :: f200 = 7.4103d-8
$ double precision, parameter :: f201 = 2.2148d-6
$ double precision, parameter :: f202 = 3.3450d-5
$ double precision, parameter :: f203 = 3.3623d-8
$ double precision, parameter :: f204 = 2.8976d-4
$ double precision, parameter :: f205 = 2.5547d0
$ double precision, parameter :: f206 = 1.3433d-4
$ double precision, parameter :: f207 = 8.9808d-3
$ double precision, parameter :: f208 = 1.5034d0
$ double precision, parameter :: f209 = 1.0466d+1
$ double precision, parameter :: f210 = 6.2971d0
$ double precision, parameter :: f211 = 2.5196d-7
$ double precision, parameter :: f212 = 1.4718d+1
$ double precision, parameter :: f213 = 7.2426d-4
$ double precision, parameter :: f214 = 9.5104d-6
$ double precision, parameter :: f215 = 2.5018d-5
$ double precision, parameter :: f216 = 3.7027d-3
$ double precision, parameter :: f217 = 1.3963d0
$ double precision, parameter :: f218 = 4.0730d+2
$ double precision, parameter :: f219 = 5.6767d-2
$ double precision, parameter :: f220 = 4.5858d+2
$ double precision, parameter :: f221 = 4.4461d-3
$ double precision, parameter :: f222 = 8.2801d-4
$ double precision, parameter :: f223 = 4.5521d-1
$ double precision, parameter :: f224 = 2.7611d-6
$ double precision, parameter :: f225 = 2.2794d-3
$ double precision, parameter :: f226 = 4.2017d+1
$ double precision, parameter :: f227 = 4.2337d-8
$ double precision, parameter :: f228 = 1.0249d-1
$ double precision, parameter :: f229 = 8.3425d+2
$ double precision, parameter :: f230 = 4.3456d-6
$ double precision, parameter :: f231 = 3.6751d-3
$ double precision, parameter :: f232 = 4.1747d-2
$ double precision, parameter :: f233 = 1.2843d+1
$ double precision, parameter :: f234 = 4.1657d-7
$ double precision, parameter :: f235 = 3.4643d-6
$ double precision, parameter :: f236 = 8.5323d+1
$ double precision, parameter :: f237 = 1.3392d-5
$ double precision, parameter :: f238 = 6.3023d-2
$ double precision, parameter :: f239 = 3.3029d-7
$ double precision, parameter :: f240 = 1.7417d-7
$ double precision, parameter :: f241 = 1.7853d-4
$ double precision, parameter :: f242 = 1.4586d-5
$ double precision, parameter :: f243 = 1.2803d+1
$ double precision, parameter :: f244 = 4.8948d+2
$ double precision, parameter :: f245 = 1.9792d-3
$ double precision, parameter :: f246 = 4.9976d-3
$ double precision, parameter :: f247 = 9.1940d-6
$ double precision, parameter :: f248 = 1.0774d-4
$ double precision, parameter :: f249 = 1.6667d-8
$ double precision, parameter :: f250 = 5.0066d-7
$ double precision, parameter :: f251 = 3.3248d-8
$ double precision, parameter :: f252 = 1.1474d-3
$ double precision, parameter :: f253 = 7.3741d-1
$ double precision, parameter :: f254 = 5.3836d-8
$ double precision, parameter :: f255 = 5.3494d+2
$ double precision, parameter :: f256 = 4.4675d-8
$ double precision, parameter :: f257 = 2.3214d-7
$ double precision, parameter :: f258 = 3.3504d-4
$ double precision, parameter :: f259 = 1.6525d-3
$ double precision, parameter :: f260 = 5.8577d-2
$ double precision, parameter :: f261 = 1.2560d-3
$ double precision, parameter :: f262 = 5.9282d-5
$ double precision, parameter :: f263 = 3.1354d-8
$ double precision, parameter :: f264 = 2.4113d-3
$ double precision, parameter :: f265 = 2.9119d+2
$ double precision, parameter :: f266 = 5.5967d-3
$ double precision, parameter :: f267 = 1.5560d+1
$ double precision, parameter :: f268 = 3.6811d-7
$ double precision, parameter :: f269 = 7.6991d-5
$ double precision, parameter :: f270 = 2.2456d-6
$ double precision, parameter :: f271 = 1.1115d-2
$ double precision, parameter :: f272 = 1.7253d-3
$ double precision, parameter :: f273 = 2.4560d-7
$ double precision, parameter :: f274 = 4.4211d-6
$ double precision, parameter :: f275 = 1.3618d-3
$ double precision, parameter :: f276 = 5.4149d-3
$ double precision, parameter :: f277 = 7.9531d-6
$ double precision, parameter :: f278 = 3.7475d-6
$ double precision, parameter :: f279 = 1.8990d0
$ double precision, parameter :: f280 = 2.9074d-5
$ double precision, parameter :: f281 = 5.4555d-3
$ double precision, parameter :: f282 = 5.4441d-3
$ double precision, parameter :: f283 = 9.3132d-4
$ double precision, parameter :: f284 = 1.5162d-1
$ double precision, parameter :: f285 = 1.6203d-7
$ double precision, parameter :: f286 = 5.8726d-4
$ double precision, parameter :: f287 = 1.8981d-1
$ double precision, parameter :: f288 = 2.4548d-4
$ double precision, parameter :: f289 = 1.4885d-5
$ double precision, parameter :: f290 = 2.1568d-3
$ double precision, parameter :: f291 = 1.4344d-4
$ double precision, parameter :: f292 = 7.1080d-5
$ double precision, parameter :: f293 = 1.8297d-6
$ double precision, parameter :: f294 = 2.8282d-7
$ double precision, parameter :: f295 = 8.8179d-8
$ double precision, parameter :: f296 = 2.7395d-1
$ double precision, parameter :: f297 = 1.8614d+1
$ double precision, parameter :: f298 = 7.6513d-8
$ double precision, parameter :: f299 = 8.6255d-5
$ double precision, parameter :: f300 = 4.2336d-6
$ double precision, parameter :: f301 = 3.6181d-7
$ double precision, parameter :: f302 = 7.3625d-6
$ double precision, parameter :: f303 = 1.0283d-4
$ double precision, parameter :: f304 = 1.0025d+2
$ double precision, parameter :: f305 = 3.1826d-7
$ double precision, parameter :: f306 = 7.1203d-3
$ double precision, parameter :: f307 = 4.1828d-7
$ double precision, parameter :: f308 = 9.5134d-6
$ double precision, parameter :: f309 = 8.8748d-2
$ double precision, parameter :: f310 = 1.4187d+2
$ double precision, parameter :: f311 = 2.0263d-1
$ double precision, parameter :: f312 = 7.5699d-2
$ double precision, parameter :: f313 = 1.2553d-4
$ double precision, parameter :: f314 = 2.7088d-2
$ double precision, parameter :: f315 = 2.7722d-2

# Electron Collision Reaction
e + CH4 => e + CH4(v24)		! f0 * Bolsig+ CH4 -> CH4(v24)
e + CH4 => e + CH4(v13)		! f1 * Bolsig+ CH4 -> CH4(v13)
e + C2H6 => e + C2H6(v24)		! f2 * Bolsig+ C2H6 -> C2H6(v24)
e + C2H6 => e + C2H6(v13)		! f3 * Bolsig+ C2H6 -> C2H6(v13)
e + C2H4 => e + C2H4(v1)		! f4 * Bolsig+ C2H4 -> C2H4(v1)
e + C2H4 => e + C2H4(v2)		! f5 * Bolsig+ C2H4 -> C2H4(v2)
e + C2H2 => e + C2H2(v5)		! f6 * Bolsig+ C2H2 -> C2H2(v5)
e + C2H2 => e + C2H2(v2)		! f7 * Bolsig+ C2H2 -> C2H2(v2)
e + C2H2 => e + C2H2(v13)		! f8 * Bolsig+ C2H2 -> C2H2(v13)
e + C3H8 => e + C3H8(v1)		! f9 * Bolsig+ C3H8 -> C3H8(v1)
e + C3H8 => e + C3H8(v2)		! f10 * Bolsig+ C3H8 -> C3H8(v2)
e + C3H6 => e + C3H6(v)		! f11 * Bolsig+ C3H6 -> C3H6(v)
e + CH4 => e + CH3 + H		! f12 * Bolsig+ CH4 -> CH3 H
e + CH4(v24) => e + CH3 + H		! f12 * Bolsig+ CH4(v24) -> CH3 H
e + CH4(v13) => e + CH3 + H		! f12 * Bolsig+ CH4(v13) -> CH3 H
e + CH4 => e + CH2 + H2		! f13 * Bolsig+ CH4 -> CH2 H2
e + CH4(v24) => e + CH2 + H2		! f13 * Bolsig+ CH4(v24) -> CH2 H2
e + CH4(v13) => e + CH2 + H2		! f13 * Bolsig+ CH4(v13) -> CH2 H2
e + CH4 => e + CH + H2 + H		! f14 * Bolsig+ CH4 -> CH H2 H
e + CH4(v24) => e + CH + H2 + H		! f14 * Bolsig+ CH4(v24) -> CH H2 H
e + CH4(v13) => e + CH + H2 + H		! f14 * Bolsig+ CH4(v13) -> CH H2 H
e + CH4 => e + C + H2 + H2		! f15 * Bolsig+ CH4 -> C H2 H2
e + CH4(v24) => e + C + H2 + H2		! f15 * Bolsig+ CH4(v24) -> C H2 H2
e + CH4(v13) => e + C + H2 + H2		! f15 * Bolsig+ CH4(v13) -> C H2 H2
e + CH3 => e + CH2 + H		! f16 * Bolsig+ CH3 -> CH2 H
e + CH3 => e + CH + H2		! f17 * Bolsig+ CH3 -> CH H2
e + CH3 => e + C + H2 + H		! f18 * Bolsig+ CH3 -> C H2 H
e + CH2 => e + CH + H		! f19 * Bolsig+ CH2 -> CH H
e + CH2 => e + C + H2		! f20 * Bolsig+ CH2 -> C H2
e + CH2 => e + C + H + H		! f21 * Bolsig+ CH2 -> C H H
e + CH => e + C + H		! f22 * Bolsig+ CH -> C H
e + CH4 => e + e + CH4^+		! f23 * Bolsig+ CH4 -> CH4^+
e + CH4(v24) => e + e + CH4^+		! f23 * Bolsig+ CH4(v24) -> CH4^+
e + CH4(v13) => e + e + CH4^+		! f23 * Bolsig+ CH4(v13) -> CH4^+
e + CH4 => e + e + H + CH3^+		! f24 * Bolsig+ CH4 -> H CH3^+
e + CH4(v24) => e + e + H + CH3^+		! f24 * Bolsig+ CH4(v24) -> H CH3^+
e + CH4(v13) => e + e + H + CH3^+		! f24 * Bolsig+ CH4(v13) -> H CH3^+
e + CH4 => e + e + H2 + CH2^+		! f25 * Bolsig+ CH4 -> H2 CH2^+
e + CH4(v24) => e + e + H2 + CH2^+		! f25 * Bolsig+ CH4(v24) -> H2 CH2^+
e + CH4(v13) => e + e + H2 + CH2^+		! f25 * Bolsig+ CH4(v13) -> H2 CH2^+
e + CH4 => e + e + H2 + H + CH^+		! f26 * Bolsig+ CH4 -> H2 H CH^+
e + CH4(v24) => e + e + H2 + H + CH^+		! f26 * Bolsig+ CH4(v24) -> H2 H CH^+
e + CH4(v13) => e + e + H2 + H + CH^+		! f26 * Bolsig+ CH4(v13) -> H2 H CH^+
e + CH3 => e + e + CH3^+		! f27 * Bolsig+ CH3 -> CH3^+
e + CH3 => e + e + H + CH2^+		! f28 * Bolsig+ CH3 -> H CH2^+
e + CH3 => e + e + H2 + CH^+		! f29 * Bolsig+ CH3 -> H2 CH^+
e + CH2 => e + e + CH2^+		! f30 * Bolsig+ CH2 -> CH2^+
e + CH2 => e + e + H + CH^+		! f31 * Bolsig+ CH2 -> H CH^+
e + CH => e + e + CH^+		! f32 * Bolsig+ CH -> CH^+
e + C2H6 => e + C2H5 + H		! f33 * Bolsig+ C2H6 -> C2H5 H
e + C2H6(v24) => e + C2H5 + H		! f33 * Bolsig+ C2H6(v24) -> C2H5 H
e + C2H6(v13) => e + C2H5 + H		! f33 * Bolsig+ C2H6(v13) -> C2H5 H
e + C2H6 => e + C2H4 + H2		! f34 * Bolsig+ C2H6 -> C2H4 H2
e + C2H6(v24) => e + C2H4 + H2		! f34 * Bolsig+ C2H6(v24) -> C2H4 H2
e + C2H6(v13) => e + C2H4 + H2		! f34 * Bolsig+ C2H6(v13) -> C2H4 H2
e + C2H6 => e + C2H3 + H2 + H		! f35 * Bolsig+ C2H6 -> C2H3 H2 H
e + C2H6(v24) => e + C2H3 + H2 + H		! f35 * Bolsig+ C2H6(v24) -> C2H3 H2 H
e + C2H6(v13) => e + C2H3 + H2 + H		! f35 * Bolsig+ C2H6(v13) -> C2H3 H2 H
e + C2H6 => e + C2H2 + H2 + H2		! f36 * Bolsig+ C2H6 -> C2H2 H2 H2
e + C2H6(v24) => e + C2H2 + H2 + H2		! f36 * Bolsig+ C2H6(v24) -> C2H2 H2 H2
e + C2H6(v13) => e + C2H2 + H2 + H2		! f36 * Bolsig+ C2H6(v13) -> C2H2 H2 H2
e + C2H6 => e + CH4 + CH2		! f37 * Bolsig+ C2H6 -> CH4 CH2
e + C2H6(v24) => e + CH4 + CH2		! f37 * Bolsig+ C2H6(v24) -> CH4 CH2
e + C2H6(v13) => e + CH4 + CH2		! f37 * Bolsig+ C2H6(v13) -> CH4 CH2
e + C2H6 => e + CH3 + CH3		! f38 * Bolsig+ C2H6 -> CH3 CH3
e + C2H6(v24) => e + CH3 + CH3		! f38 * Bolsig+ C2H6(v24) -> CH3 CH3
e + C2H6(v13) => e + CH3 + CH3		! f38 * Bolsig+ C2H6(v13) -> CH3 CH3
e + C2H5 => e + C2H4 + H		! f39 * Bolsig+ C2H5 -> C2H4 H
e + C2H5 => e + C2H3 + H2		! f40 * Bolsig+ C2H5 -> C2H3 H2
e + C2H5 => e + C2H3 + H + H		! f41 * Bolsig+ C2H5 -> C2H3 H H
e + C2H5 => e + C2H2 + H2 + H		! f42 * Bolsig+ C2H5 -> C2H2 H2 H
e + C2H5 => e + CH4 + CH		! f43 * Bolsig+ C2H5 -> CH4 CH
e + C2H5 => e + CH3 + CH2		! f44 * Bolsig+ C2H5 -> CH3 CH2
e + C2H4 => e + C2H3 + H		! f45 * Bolsig+ C2H4 -> C2H3 H
e + C2H4(v1) => e + C2H3 + H		! f45 * Bolsig+ C2H4(v1) -> C2H3 H
e + C2H4(v2) => e + C2H3 + H		! f45 * Bolsig+ C2H4(v2) -> C2H3 H
e + C2H4 => e + C2H2 + H2		! f46 * Bolsig+ C2H4 -> C2H2 H2
e + C2H4(v1) => e + C2H2 + H2		! f46 * Bolsig+ C2H4(v1) -> C2H2 H2
e + C2H4(v2) => e + C2H2 + H2		! f46 * Bolsig+ C2H4(v2) -> C2H2 H2
e + C2H4 => e + C2H2 + H + H		! f47 * Bolsig+ C2H4 -> C2H2 H H
e + C2H4(v1) => e + C2H2 + H + H		! f47 * Bolsig+ C2H4(v1) -> C2H2 H H
e + C2H4(v2) => e + C2H2 + H + H		! f47 * Bolsig+ C2H4(v2) -> C2H2 H H
e + C2H4 => e + CH3 + CH		! f48 * Bolsig+ C2H4 -> CH3 CH
e + C2H4(v1) => e + CH3 + CH		! f48 * Bolsig+ C2H4(v1) -> CH3 CH
e + C2H4(v2) => e + CH3 + CH		! f48 * Bolsig+ C2H4(v2) -> CH3 CH
e + C2H4 => e + CH2 + CH2		! f49 * Bolsig+ C2H4 -> CH2 CH2
e + C2H4(v1) => e + CH2 + CH2		! f49 * Bolsig+ C2H4(v1) -> CH2 CH2
e + C2H4(v2) => e + CH2 + CH2		! f49 * Bolsig+ C2H4(v2) -> CH2 CH2
e + C2H3 => e + C2H2 + H		! f50 * Bolsig+ C2H3 -> C2H2 H
e + C2H3 => e + CH2 + CH		! f51 * Bolsig+ C2H3 -> CH2 CH
e + C2H2 => e + CH + CH		! f52 * Bolsig+ C2H2 -> CH CH
e + C2H2(v5) => e + CH + CH		! f52 * Bolsig+ C2H2(v5) -> CH CH
e + C2H2(v2) => e + CH + CH		! f52 * Bolsig+ C2H2(v2) -> CH CH
e + C2H2(v13) => e + CH + CH		! f52 * Bolsig+ C2H2(v13) -> CH CH
e + C2H6 => e + e + C2H6^+		! f53 * Bolsig+ C2H6 -> C2H6^+
e + C2H6(v24) => e + e + C2H6^+		! f53 * Bolsig+ C2H6(v24) -> C2H6^+
e + C2H6(v13) => e + e + C2H6^+		! f53 * Bolsig+ C2H6(v13) -> C2H6^+
e + C2H6 => e + e + H + C2H5^+		! f54 * Bolsig+ C2H6 -> H C2H5^+
e + C2H6(v24) => e + e + H + C2H5^+		! f54 * Bolsig+ C2H6(v24) -> H C2H5^+
e + C2H6(v13) => e + e + H + C2H5^+		! f54 * Bolsig+ C2H6(v13) -> H C2H5^+
e + C2H6 => e + e + H2 + C2H4^+		! f55 * Bolsig+ C2H6 -> H2 C2H4^+
e + C2H6(v24) => e + e + H2 + C2H4^+		! f55 * Bolsig+ C2H6(v24) -> H2 C2H4^+
e + C2H6(v13) => e + e + H2 + C2H4^+		! f55 * Bolsig+ C2H6(v13) -> H2 C2H4^+
e + C2H6 => e + e + H2 + H + C2H3^+		! f56 * Bolsig+ C2H6 -> H2 H C2H3^+
e + C2H6(v24) => e + e + H2 + H + C2H3^+		! f56 * Bolsig+ C2H6(v24) -> H2 H C2H3^+
e + C2H6(v13) => e + e + H2 + H + C2H3^+		! f56 * Bolsig+ C2H6(v13) -> H2 H C2H3^+
e + C2H6 => e + e + H2 + H2 + C2H2^+		! f57 * Bolsig+ C2H6 -> H2 H2 C2H2^+
e + C2H6(v24) => e + e + H2 + H2 + C2H2^+		! f57 * Bolsig+ C2H6(v24) -> H2 H2 C2H2^+
e + C2H6(v13) => e + e + H2 + H2 + C2H2^+		! f57 * Bolsig+ C2H6(v13) -> H2 H2 C2H2^+
e + C2H6 => e + e + CH3 + CH3^+		! f58 * Bolsig+ C2H6 -> CH3 CH3^+
e + C2H6(v24) => e + e + CH3 + CH3^+		! f58 * Bolsig+ C2H6(v24) -> CH3 CH3^+
e + C2H6(v13) => e + e + CH3 + CH3^+		! f58 * Bolsig+ C2H6(v13) -> CH3 CH3^+
e + C2H6 => e + e + CH4 + CH2^+		! f59 * Bolsig+ C2H6 -> CH4 CH2^+
e + C2H6(v24) => e + e + CH4 + CH2^+		! f59 * Bolsig+ C2H6(v24) -> CH4 CH2^+
e + C2H6(v13) => e + e + CH4 + CH2^+		! f59 * Bolsig+ C2H6(v13) -> CH4 CH2^+
e + C2H5 => e + e + C2H5^+		! f60 * Bolsig+ C2H5 -> C2H5^+
e + C2H5 => e + e + H + C2H4^+		! f61 * Bolsig+ C2H5 -> H C2H4^+
e + C2H5 => e + e + H2 + C2H3^+		! f62 * Bolsig+ C2H5 -> H2 C2H3^+
e + C2H5 => e + e + H2 + H + C2H2^+		! f63 * Bolsig+ C2H5 -> H2 H C2H2^+
e + C2H5 => e + e + CH2 + CH3^+		! f64 * Bolsig+ C2H5 -> CH2 CH3^+
e + C2H5 => e + e + CH3 + CH2^+		! f65 * Bolsig+ C2H5 -> CH3 CH2^+
e + C2H5 => e + e + CH4 + CH^+		! f66 * Bolsig+ C2H5 -> CH4 CH^+
e + C2H4 => e + e + C2H4^+		! f67 * Bolsig+ C2H4 -> C2H4^+
e + C2H4(v1) => e + e + C2H4^+		! f67 * Bolsig+ C2H4(v1) -> C2H4^+
e + C2H4(v2) => e + e + C2H4^+		! f67 * Bolsig+ C2H4(v2) -> C2H4^+
e + C2H4 => e + e + H + C2H3^+		! f68 * Bolsig+ C2H4 -> H C2H3^+
e + C2H4(v1) => e + e + H + C2H3^+		! f68 * Bolsig+ C2H4(v1) -> H C2H3^+
e + C2H4(v2) => e + e + H + C2H3^+		! f68 * Bolsig+ C2H4(v2) -> H C2H3^+
e + C2H4 => e + e + CH + CH3^+		! f69 * Bolsig+ C2H4 -> CH CH3^+
e + C2H4(v1) => e + e + CH + CH3^+		! f69 * Bolsig+ C2H4(v1) -> CH CH3^+
e + C2H4(v2) => e + e + CH + CH3^+		! f69 * Bolsig+ C2H4(v2) -> CH CH3^+
e + C2H4 => e + e + CH2 + CH2^+		! f70 * Bolsig+ C2H4 -> CH2 CH2^+
e + C2H4(v1) => e + e + CH2 + CH2^+		! f70 * Bolsig+ C2H4(v1) -> CH2 CH2^+
e + C2H4(v2) => e + e + CH2 + CH2^+		! f70 * Bolsig+ C2H4(v2) -> CH2 CH2^+
e + C2H4 => e + e + CH3 + CH^+		! f71 * Bolsig+ C2H4 -> CH3 CH^+
e + C2H4(v1) => e + e + CH3 + CH^+		! f71 * Bolsig+ C2H4(v1) -> CH3 CH^+
e + C2H4(v2) => e + e + CH3 + CH^+		! f71 * Bolsig+ C2H4(v2) -> CH3 CH^+
e + C2H3 => e + e + C2H3^+		! f72 * Bolsig+ C2H3 -> C2H3^+
e + C2H3 => e + e + H + C2H2^+		! f73 * Bolsig+ C2H3 -> H C2H2^+
e + C2H3 => e + e + CH + CH2^+		! f74 * Bolsig+ C2H3 -> CH CH2^+
e + C2H3 => e + e + CH2 + CH^+		! f75 * Bolsig+ C2H3 -> CH2 CH^+
e + C2H3 => e + e + C2H2 + H^+		! f76 * Bolsig+ C2H3 -> C2H2 H^+
e + C2H2 => e + e + C2H2^+		! f77 * Bolsig+ C2H2 -> C2H2^+
e + C2H2(v5) => e + e + C2H2^+		! f77 * Bolsig+ C2H2(v5) -> C2H2^+
e + C2H2(v2) => e + e + C2H2^+		! f77 * Bolsig+ C2H2(v2) -> C2H2^+
e + C2H2(v13) => e + e + C2H2^+		! f77 * Bolsig+ C2H2(v13) -> C2H2^+
e + C2H2 => e + e + CH + CH^+		! f78 * Bolsig+ C2H2 -> CH CH^+
e + C2H2(v5) => e + e + CH + CH^+		! f78 * Bolsig+ C2H2(v5) -> CH CH^+
e + C2H2(v2) => e + e + CH + CH^+		! f78 * Bolsig+ C2H2(v2) -> CH CH^+
e + C2H2(v13) => e + e + CH + CH^+		! f78 * Bolsig+ C2H2(v13) -> CH CH^+
e + C3H8 => e + C3H7 + H		! f79 * Bolsig+ C3H8 -> C3H7 H
e + C3H8(v1) => e + C3H7 + H		! f79 * Bolsig+ C3H8(v1) -> C3H7 H
e + C3H8(v2) => e + C3H7 + H		! f79 * Bolsig+ C3H8(v2) -> C3H7 H
e + C3H8 => e + C3H6 + H2		! f80 * Bolsig+ C3H8 -> C3H6 H2
e + C3H8(v1) => e + C3H6 + H2		! f80 * Bolsig+ C3H8(v1) -> C3H6 H2
e + C3H8(v2) => e + C3H6 + H2		! f80 * Bolsig+ C3H8(v2) -> C3H6 H2
e + C3H7 => e + C3H6 + H		! f81 * Bolsig+ C3H7 -> C3H6 H
e + C3H8 => e + e + C3H8^+		! f82 * Bolsig+ C3H8 -> C3H8^+
e + C3H8(v1) => e + e + C3H8^+		! f82 * Bolsig+ C3H8(v1) -> C3H8^+
e + C3H8(v2) => e + e + C3H8^+		! f82 * Bolsig+ C3H8(v2) -> C3H8^+
e + C3H8 => e + e + H + C3H7^+		! f83 * Bolsig+ C3H8 -> H C3H7^+
e + C3H8(v1) => e + e + H + C3H7^+		! f83 * Bolsig+ C3H8(v1) -> H C3H7^+
e + C3H8(v2) => e + e + H + C3H7^+		! f83 * Bolsig+ C3H8(v2) -> H C3H7^+
e + C3H8 => e + e + H2 + C3H6^+		! f84 * Bolsig+ C3H8 -> H2 C3H6^+
e + C3H8(v1) => e + e + H2 + C3H6^+		! f84 * Bolsig+ C3H8(v1) -> H2 C3H6^+
e + C3H8(v2) => e + e + H2 + C3H6^+		! f84 * Bolsig+ C3H8(v2) -> H2 C3H6^+
e + C3H7 => e + e + C3H7^+		! f85 * Bolsig+ C3H7 -> C3H7^+
e + C3H7 => e + e + H + C3H6^+		! f86 * Bolsig+ C3H7 -> H C3H6^+
e + C3H6 => e + e + C3H6^+		! f87 * Bolsig+ C3H6 -> C3H6^+
e + C3H6(v) => e + e + C3H6^+		! f87 * Bolsig+ C3H6(v) -> C3H6^+
e + C3H6 => e + C2H2 + CH4		! f88 * Bolsig+ C3H6 -> C2H2 CH4
e + C3H6(v) => e + C2H2 + CH4		! f88 * Bolsig+ C3H6(v) -> C2H2 CH4
e + C3H6 => e + e + C2H2 + CH4^+		! f89 * Bolsig+ C3H6 -> C2H2 CH4^+
e + C3H6(v) => e + e + C2H2 + CH4^+		! f89 * Bolsig+ C3H6(v) -> C2H2 CH4^+

# Ion Recombination Reaction
e + e + CH^+ => e + CH		! f90 * 1.00d0
e + e + CH2^+ => e + CH2		! f91 * 1.00d0
e + e + CH3^+ => e + CH3		! f92 * 1.00d0
e + e + CH4^+ => e + CH4		! f93 * 1.00d0
e + e + C2H2^+ => e + C2H2		! f94 * 1.00d0
e + e + C2H3^+ => e + C2H3		! f95 * 1.00d0
e + e + C2H4^+ => e + C2H4		! f96 * 1.00d0
e + e + C2H5^+ => e + C2H5		! f97 * 1.00d0
e + e + C2H6^+ => e + C2H6		! f98 * 1.00d0
e + e + C3H6^+ => e + C3H6		! f99 * 1.00d0
e + e + C3H7^+ => e + C3H7		! f100 * 1.00d0
e + e + C3H8^+ => e + C3H8		! f101 * 1.00d0

# Gas Phase Reaction
e + CH4^+ => CH3 + H		! f102 * 1.18d-08 * (300./Tgas)**0.5
e + CH4^+ => CH2 + H + H		! f103 * 2.42d-08 * (300./Tgas)**0.5
e + CH4^+ => CH + H2 + H		! f104 * 1.41d-08 * (300./Tgas)**0.5
e + CH3^+ => CH2 + H		! f105 * 2.25d-08 * (300./Tgas)**0.5
e + CH3^+ => CH + H2		! f106 * 7.88d-09 * (300./Tgas)**0.5
e + CH3^+ => CH + H + H		! f107 * 9.00d-09 * (300./Tgas)**0.5
e + CH3^+ => C + H2 + H		! f108 * 1.69d-08 * (300./Tgas)**0.5
e + CH2^+ => CH + H		! f109 * 1.00d-08 * (300./Tgas)**0.5
e + CH2^+ => C + H2		! f110 * 4.82d-09 * (300./Tgas)**0.5
e + CH2^+ => C + H + H		! f111 * 2.53d-08 * (300./Tgas)**0.5
e + CH^+ => C + H		! f112 * 3.23d-08 * (300./Tgas)**0.42
e + C2H6^+ => C2H5 + H		! f113 * 2.19d-08 * (300./Tgas)**0.71
e + C2H6^+ => C2H4 + H + H		! f114 * 3.36d-08 * (300./Tgas)**0.71
e + C2H5^+ => C2H4 + H		! f115 * 7.70d-09 * (300./Tgas)**0.71
e + C2H5^+ => C2H3 + H + H		! f116 * 1.92d-08 * (300./Tgas)**0.71
e + C2H5^+ => C2H2 + H2 + H		! f117 * 1.60d-08 * (300./Tgas)**0.71
e + C2H5^+ => C2H2 + H + H + H		! f118 * 8.98d-09 * (300./Tgas)**0.71
e + C2H5^+ => CH3 + CH2		! f119 * 9.62d-09 * (300./Tgas)**0.71
e + C2H4^+ => C2H3 + H		! f120 * 8.29d-09 * (300./Tgas)**0.71
e + C2H4^+ => C2H2 + H + H		! f121 * 3.43d-08 * (300./Tgas)**0.71
e + C2H3^+ => C2H2 + H		! f122 * 1.34d-08 * (300./Tgas)**0.71
e + C2H2^+ => CH + CH		! f123 * 4.87d-09 * (300./Tgas)**0.71
e + H2^+ => H + H		! f124 * 3.17d21/(6.022d23 * Te**4.5)
e + H3^+ => H + H2		! f125 * 3.17d21/(6.022d23 * Te**4.5)
H2 + H2^+ => H + H3^+		! f126 * 2.11d-09
C2H6 + CH4^+ => CH4 + H2 + C2H4^+		! f127 * 1.91d-9
C2H6(v24) + CH4^+ => CH4 + H2 + C2H4^+		! f127 * 1.91d-9
C2H6(v13) + CH4^+ => CH4 + H2 + C2H4^+		! f127 * 1.91d-9
C2H4 + CH4^+ => CH3 + C2H5^+		! f128 * 4.23d-10