ELEMENTS
e C H
END

SPECIES
e C CH CH^+ CH2 CH2^+ CH3 CH3^+ CH4 CH4(v13) CH4(v24) CH4^+ C2H2 C2H2(v13) C2H2(v2) C2H2(v5) C2H2^+ C2H3 C2H3^+ C2H4 C2H4(v1) C2H4(v2) C2H4^+ C2H5 C2H5^+
C2H6 C2H6(v13) C2H6(v24) C2H6^+ C3H5 C3H6 C3H6(v) C3H6^+ C3H7 C3H7^+ C3H8 C3H8(v1) C3H8(v2) C3H8^+ C4H9 C4H9H C2H C5H12 H H2 H2^+ H3^+ H^+
END

BOLSIG
CH CH2 CH3 CH4 CH4(v13) CH4(v24) C2H2 C2H2(v13) C2H2(v2) C2H2(v5) C2H3 C2H4 C2H4(v1) C2H4(v2) C2H5 C2H6 C2H6(v13) C2H6(v24) C3H6 C3H6(v) C3H7 C3H8 C3H8(v1) C3H8(v2)
END

REACTIONS
# Gas Constant
$ double precision, parameter :: R = 8.314d-3

# Compensation Parameters
$ double precision, parameter :: f0 = 2.7847d+2
$ double precision, parameter :: f1 = 1.4092d-6
$ double precision, parameter :: f2 = 1.8667d-2
$ double precision, parameter :: f3 = 1.6971d-7
$ double precision, parameter :: f4 = 3.9234d0
$ double precision, parameter :: f5 = 1.1318d-4
$ double precision, parameter :: f6 = 1.1427d-8
$ double precision, parameter :: f7 = 5.7842d-3
$ double precision, parameter :: f8 = 8.1288d-4
$ double precision, parameter :: f9 = 4.9268d0
$ double precision, parameter :: f10 = 2.7002d-8
$ double precision, parameter :: f11 = 1.6755d+2
$ double precision, parameter :: f12 = 1.9646d0
$ double precision, parameter :: f13 = 9.9534d-8
$ double precision, parameter :: f14 = 1.3443d-4
$ double precision, parameter :: f15 = 9.8261d+1
$ double precision, parameter :: f16 = 2.9133d+1
$ double precision, parameter :: f17 = 7.3384d-1
$ double precision, parameter :: f18 = 1.3863d-6
$ double precision, parameter :: f19 = 2.5302d-1
$ double precision, parameter :: f20 = 3.9002d-5
$ double precision, parameter :: f21 = 2.0602d-6
$ double precision, parameter :: f22 = 3.8921d+2
$ double precision, parameter :: f23 = 6.9957d-8
$ double precision, parameter :: f24 = 1.1501d-8
$ double precision, parameter :: f25 = 8.1049d-3
$ double precision, parameter :: f26 = 2.2189d-3
$ double precision, parameter :: f27 = 4.3755d0
$ double precision, parameter :: f28 = 9.9091d-8
$ double precision, parameter :: f29 = 1.3644d-4
$ double precision, parameter :: f30 = 1.2267d+2
$ double precision, parameter :: f31 = 3.8191d-1
$ double precision, parameter :: f32 = 2.7855d+1
$ double precision, parameter :: f33 = 9.5492d-7
$ double precision, parameter :: f34 = 1.6694d+2
$ double precision, parameter :: f35 = 2.8960d-5
$ double precision, parameter :: f36 = 1.1315d-4
$ double precision, parameter :: f37 = 1.3265d-6
$ double precision, parameter :: f38 = 8.8469d-5
$ double precision, parameter :: f39 = 4.5088d-2
$ double precision, parameter :: f40 = 3.2552d-7
$ double precision, parameter :: f41 = 6.3327d-7
$ double precision, parameter :: f42 = 2.1676d-3
$ double precision, parameter :: f43 = 1.3055d-1
$ double precision, parameter :: f44 = 7.7175d-1
$ double precision, parameter :: f45 = 7.2253d-3
$ double precision, parameter :: f46 = 3.7057d+2
$ double precision, parameter :: f47 = 2.3103d-1
$ double precision, parameter :: f48 = 9.8701d-7
$ double precision, parameter :: f49 = 2.4786d+1
$ double precision, parameter :: f50 = 3.5619d-1
$ double precision, parameter :: f51 = 9.5126d-4
$ double precision, parameter :: f52 = 4.4452d-4
$ double precision, parameter :: f53 = 1.4070d+1
$ double precision, parameter :: f54 = 6.1436d-6
$ double precision, parameter :: f55 = 3.0035d+1
$ double precision, parameter :: f56 = 9.8682d+1
$ double precision, parameter :: f57 = 2.4046d-3
$ double precision, parameter :: f58 = 7.9664d-4
$ double precision, parameter :: f59 = 7.9213d+1
$ double precision, parameter :: f60 = 2.7124d-8
$ double precision, parameter :: f61 = 1.1424d-6
$ double precision, parameter :: f62 = 7.1082d-3
$ double precision, parameter :: f63 = 7.0675d-3
$ double precision, parameter :: f64 = 6.6895d-4
$ double precision, parameter :: f65 = 7.5027d+2
$ double precision, parameter :: f66 = 1.2311d0
$ double precision, parameter :: f67 = 3.6813d-6
$ double precision, parameter :: f68 = 6.5448d-5
$ double precision, parameter :: f69 = 1.2554d-4
$ double precision, parameter :: f70 = 6.6680d-2
$ double precision, parameter :: f71 = 6.2001d-7
$ double precision, parameter :: f72 = 5.4151d+1
$ double precision, parameter :: f73 = 5.3321d-2
$ double precision, parameter :: f74 = 4.4358d-5
$ double precision, parameter :: f75 = 1.2717d+1
$ double precision, parameter :: f76 = 1.2230d-1
$ double precision, parameter :: f77 = 8.2042d0
$ double precision, parameter :: f78 = 1.6197d-6
$ double precision, parameter :: f79 = 4.0694d0
$ double precision, parameter :: f80 = 2.7801d-7
$ double precision, parameter :: f81 = 6.9247d-6
$ double precision, parameter :: f82 = 4.8591d-8
$ double precision, parameter :: f83 = 3.4612d+2
$ double precision, parameter :: f84 = 2.6293d-4
$ double precision, parameter :: f85 = 8.6907d-7
$ double precision, parameter :: f86 = 1.2289d0
$ double precision, parameter :: f87 = 2.6785d-3
$ double precision, parameter :: f88 = 3.5405d-3
$ double precision, parameter :: f89 = 8.4202d-7
$ double precision, parameter :: f90 = 3.5170d-6
$ double precision, parameter :: f91 = 1.3142d-6
$ double precision, parameter :: f92 = 5.1226d-6
$ double precision, parameter :: f93 = 3.1821d-1
$ double precision, parameter :: f94 = 2.1744d-2
$ double precision, parameter :: f95 = 5.1114d+2
$ double precision, parameter :: f96 = 2.5257d-6
$ double precision, parameter :: f97 = 1.3421d-6
$ double precision, parameter :: f98 = 1.0272d0
$ double precision, parameter :: f99 = 3.5329d-3
$ double precision, parameter :: f100 = 9.4541d-8
$ double precision, parameter :: f101 = 3.2659d-8
$ double precision, parameter :: f102 = 3.9611d-7
$ double precision, parameter :: f103 = 4.3842d+1
$ double precision, parameter :: f104 = 1.1117d-7
$ double precision, parameter :: f105 = 2.8631d+2
$ double precision, parameter :: f106 = 3.7285d+1
$ double precision, parameter :: f107 = 3.2882d-6
$ double precision, parameter :: f108 = 3.5727d+1
$ double precision, parameter :: f109 = 2.5646d+2
$ double precision, parameter :: f110 = 2.0506d-1
$ double precision, parameter :: f111 = 6.7425d-5
$ double precision, parameter :: f112 = 2.6159d+1
$ double precision, parameter :: f113 = 5.5219d+1
$ double precision, parameter :: f114 = 1.0646d-5
$ double precision, parameter :: f115 = 4.5756d-1
$ double precision, parameter :: f116 = 9.5960d-2
$ double precision, parameter :: f117 = 2.7885d-2
$ double precision, parameter :: f118 = 1.1360d-7
$ double precision, parameter :: f119 = 4.1325d0
$ double precision, parameter :: f120 = 2.9109d-7
$ double precision, parameter :: f121 = 4.6425d-4
$ double precision, parameter :: f122 = 1.9492d+2
$ double precision, parameter :: f123 = 1.0190d-2
$ double precision, parameter :: f124 = 1.5583d+2
$ double precision, parameter :: f125 = 1.0628d+1
$ double precision, parameter :: f126 = 1.0916d-7
$ double precision, parameter :: f127 = 1.1050d-7
$ double precision, parameter :: f128 = 1.8332d-4
$ double precision, parameter :: f129 = 3.3465d+1
$ double precision, parameter :: f130 = 4.5648d+1
$ double precision, parameter :: f131 = 1.9992d-1
$ double precision, parameter :: f132 = 3.6666d-7
$ double precision, parameter :: f133 = 1.8731d+1
$ double precision, parameter :: f134 = 1.8428d0
$ double precision, parameter :: f135 = 3.5010d-4
$ double precision, parameter :: f136 = 4.8173d-6
$ double precision, parameter :: f137 = 3.7324d-2
$ double precision, parameter :: f138 = 2.7816d-1
$ double precision, parameter :: f139 = 6.7990d-4
$ double precision, parameter :: f140 = 5.0115d-6
$ double precision, parameter :: f141 = 2.8919d0
$ double precision, parameter :: f142 = 9.4600d-8
$ double precision, parameter :: f143 = 1.0040d-7
$ double precision, parameter :: f144 = 3.8803d-2
$ double precision, parameter :: f145 = 4.9550d-5
$ double precision, parameter :: f146 = 3.5618d-7
$ double precision, parameter :: f147 = 5.1644d+2
$ double precision, parameter :: f148 = 1.3289d-3
$ double precision, parameter :: f149 = 4.5065d0
$ double precision, parameter :: f150 = 1.4313d-1
$ double precision, parameter :: f151 = 4.0198d-7
$ double precision, parameter :: f152 = 1.0437d-1
$ double precision, parameter :: f153 = 1.6583d-6
$ double precision, parameter :: f154 = 9.8151d-1
$ double precision, parameter :: f155 = 6.3689d-1
$ double precision, parameter :: f156 = 2.7711d+1
$ double precision, parameter :: f157 = 9.1555d-3
$ double precision, parameter :: f158 = 7.9055d-7
$ double precision, parameter :: f159 = 8.2823d-1
$ double precision, parameter :: f160 = 5.1204d-4
$ double precision, parameter :: f161 = 1.3528d-2
$ double precision, parameter :: f162 = 2.2269d-2
$ double precision, parameter :: f163 = 5.0641d-3
$ double precision, parameter :: f164 = 5.5388d-8
$ double precision, parameter :: f165 = 8.4855d+2
$ double precision, parameter :: f166 = 3.7106d-1
$ double precision, parameter :: f167 = 1.2416d-7
$ double precision, parameter :: f168 = 1.3292d-4
$ double precision, parameter :: f169 = 1.6733d-1
$ double precision, parameter :: f170 = 4.6265d+1
$ double precision, parameter :: f171 = 6.2866d+2
$ double precision, parameter :: f172 = 5.4904d-2
$ double precision, parameter :: f173 = 1.5190d+2
$ double precision, parameter :: f174 = 1.9730d+1
$ double precision, parameter :: f175 = 1.6952d+1
$ double precision, parameter :: f176 = 3.1504d-5
$ double precision, parameter :: f177 = 4.8429d-3
$ double precision, parameter :: f178 = 1.0183d-1
$ double precision, parameter :: f179 = 6.2989d-4
$ double precision, parameter :: f180 = 8.7522d-2
$ double precision, parameter :: f181 = 3.4005d+1
$ double precision, parameter :: f182 = 6.8855d-3
$ double precision, parameter :: f183 = 3.6869d-3
$ double precision, parameter :: f184 = 3.9825d-4
$ double precision, parameter :: f185 = 6.6372d-4
$ double precision, parameter :: f186 = 3.0081d-5
$ double precision, parameter :: f187 = 2.2956d-3
$ double precision, parameter :: f188 = 3.8359d-3
$ double precision, parameter :: f189 = 3.8472d-5
$ double precision, parameter :: f190 = 7.6229d-7
$ double precision, parameter :: f191 = 2.0745d+1
$ double precision, parameter :: f192 = 1.8753d-2
$ double precision, parameter :: f193 = 5.1303d+1
$ double precision, parameter :: f194 = 2.7277d0
$ double precision, parameter :: f195 = 1.2723d-6
$ double precision, parameter :: f196 = 1.4166d+1
$ double precision, parameter :: f197 = 1.5033d-7
$ double precision, parameter :: f198 = 8.9385d+1
$ double precision, parameter :: f199 = 2.8903d-8
$ double precision, parameter :: f200 = 1.0509d-2
$ double precision, parameter :: f201 = 1.0414d-2
$ double precision, parameter :: f202 = 9.8050d-8
$ double precision, parameter :: f203 = 1.5791d+2
$ double precision, parameter :: f204 = 2.2387d-2
$ double precision, parameter :: f205 = 1.4560d-1
$ double precision, parameter :: f206 = 9.7090d+2
$ double precision, parameter :: f207 = 2.4072d-1
$ double precision, parameter :: f208 = 3.9034d-1
$ double precision, parameter :: f209 = 1.7036d+2
$ double precision, parameter :: f210 = 1.1845d-4
$ double precision, parameter :: f211 = 1.6941d+1
$ double precision, parameter :: f212 = 2.2876d-4
$ double precision, parameter :: f213 = 1.1439d-8
$ double precision, parameter :: f214 = 1.9462d-1
$ double precision, parameter :: f215 = 3.0616d-7
$ double precision, parameter :: f216 = 1.8450d+1
$ double precision, parameter :: f217 = 1.4520d-2
$ double precision, parameter :: f218 = 7.0250d-1
$ double precision, parameter :: f219 = 1.1257d+1
$ double precision, parameter :: f220 = 2.0252d0
$ double precision, parameter :: f221 = 2.3102d-7
$ double precision, parameter :: f222 = 6.8042d-3
$ double precision, parameter :: f223 = 3.5696d+2
$ double precision, parameter :: f224 = 3.2459d-3
$ double precision, parameter :: f225 = 3.0685d-4
$ double precision, parameter :: f226 = 8.0940d-5
$ double precision, parameter :: f227 = 2.8709d-4
$ double precision, parameter :: f228 = 1.3117d-3
$ double precision, parameter :: f229 = 2.2985d-1
$ double precision, parameter :: f230 = 9.1322d+1
$ double precision, parameter :: f231 = 2.0467d0
$ double precision, parameter :: f232 = 3.4814d-2
$ double precision, parameter :: f233 = 1.8448d-7
$ double precision, parameter :: f234 = 3.3041d-7
$ double precision, parameter :: f235 = 6.0591d+2
$ double precision, parameter :: f236 = 3.3638d0
$ double precision, parameter :: f237 = 3.5959d0
$ double precision, parameter :: f238 = 7.0197d0
$ double precision, parameter :: f239 = 1.4224d+1
$ double precision, parameter :: f240 = 7.9769d-1
$ double precision, parameter :: f241 = 1.0247d-1
$ double precision, parameter :: f242 = 8.2467d-1
$ double precision, parameter :: f243 = 1.3236d-6
$ double precision, parameter :: f244 = 1.1789d-5
$ double precision, parameter :: f245 = 2.4823d0
$ double precision, parameter :: f246 = 4.3643d+2
$ double precision, parameter :: f247 = 2.1167d-7
$ double precision, parameter :: f248 = 2.9731d0
$ double precision, parameter :: f249 = 1.0176d-1
$ double precision, parameter :: f250 = 7.0124d-4
$ double precision, parameter :: f251 = 2.5068d-4
$ double precision, parameter :: f252 = 2.7902d-7
$ double precision, parameter :: f253 = 2.6585d-6
$ double precision, parameter :: f254 = 6.4906d-2
$ double precision, parameter :: f255 = 9.4821d-1
$ double precision, parameter :: f256 = 4.3157d-5
$ double precision, parameter :: f257 = 3.2563d-4
$ double precision, parameter :: f258 = 1.1530d-3
$ double precision, parameter :: f259 = 1.3823d-3
$ double precision, parameter :: f260 = 7.9978d-4
$ double precision, parameter :: f261 = 3.1218d-1
$ double precision, parameter :: f262 = 3.4745d-3
$ double precision, parameter :: f263 = 1.9013d+1
$ double precision, parameter :: f264 = 1.9110d-8
$ double precision, parameter :: f265 = 4.7039d0
$ double precision, parameter :: f266 = 3.9665d-2
$ double precision, parameter :: f267 = 1.3332d-6
$ double precision, parameter :: f268 = 2.1419d-1
$ double precision, parameter :: f269 = 1.8712d-7
$ double precision, parameter :: f270 = 1.0592d0
$ double precision, parameter :: f271 = 1.1817d-4
$ double precision, parameter :: f272 = 2.3822d+2
$ double precision, parameter :: f273 = 7.5188d-3
$ double precision, parameter :: f274 = 4.4159d-8
$ double precision, parameter :: f275 = 1.4430d0
$ double precision, parameter :: f276 = 1.2194d+1
$ double precision, parameter :: f277 = 1.9661d+1
$ double precision, parameter :: f278 = 3.7167d-8
$ double precision, parameter :: f279 = 1.2087d-4
$ double precision, parameter :: f280 = 3.5717d-3
$ double precision, parameter :: f281 = 3.1082d-8
$ double precision, parameter :: f282 = 1.1943d-7
$ double precision, parameter :: f283 = 5.6769d-8
$ double precision, parameter :: f284 = 8.9809d+2
$ double precision, parameter :: f285 = 9.7300d-5
$ double precision, parameter :: f286 = 3.0555d-4
$ double precision, parameter :: f287 = 1.6360d-7
$ double precision, parameter :: f288 = 2.6986d-3
$ double precision, parameter :: f289 = 7.3429d-2
$ double precision, parameter :: f290 = 3.5396d-7
$ double precision, parameter :: f291 = 1.4613d+2
$ double precision, parameter :: f292 = 1.3636d-8
$ double precision, parameter :: f293 = 2.3125d-3
$ double precision, parameter :: f294 = 5.9025d-8
$ double precision, parameter :: f295 = 8.1425d-6
$ double precision, parameter :: f296 = 3.6766d+2
$ double precision, parameter :: f297 = 8.3084d+2
$ double precision, parameter :: f298 = 1.6306d-5
$ double precision, parameter :: f299 = 7.1449d-1
$ double precision, parameter :: f300 = 3.8142d+2
$ double precision, parameter :: f301 = 1.4824d+2
$ double precision, parameter :: f302 = 7.3454d-5
$ double precision, parameter :: f303 = 4.2190d0
$ double precision, parameter :: f304 = 2.2395d-2
$ double precision, parameter :: f305 = 1.2438d-1
$ double precision, parameter :: f306 = 1.8353d+1
$ double precision, parameter :: f307 = 4.1502d-8
$ double precision, parameter :: f308 = 3.7126d-4
$ double precision, parameter :: f309 = 4.2706d+1
$ double precision, parameter :: f310 = 1.6067d0
$ double precision, parameter :: f311 = 4.3300d-3
$ double precision, parameter :: f312 = 1.7125d-2
$ double precision, parameter :: f313 = 6.3368d-8
$ double precision, parameter :: f314 = 5.9309d0
$ double precision, parameter :: f315 = 1.3192d-5

# Electron Collision Reaction
e + CH4 => e + CH4(v24)		! f0 * Bolsig+ CH4 -> CH4(v24)
e + CH4 => e + CH4(v13)		! f1 * Bolsig+ CH4 -> CH4(v13)
e + C2H6 => e + C2H6(v24)		! f2 * Bolsig+ C2H6 -> C2H6(v24)
e + C2H6 => e + C2H6(v13)		! f3 * Bolsig+ C2H6 -> C2H6(v13)
e + C2H4 => e + C2H4(v1)		! f4 * Bolsig+ C2H4 -> C2H4(v1)
e + C2H4 => e + C2H4(v2)		! f5 * Bolsig+ C2H4 -> C2H4(v2)
e + C2H2 => e + C2H2(v5)		! f6 * Bolsig+ C2H2 -> C2H2(v5)
e + C2H2 => e + C2H2(v2)		! f7 * Bolsig+ C2H2 -> C2H2(v2)
e + C2H2 => e + C2H2(v13)		! f8 * Bolsig+ C2H2 -> C2H2(v13)
e + C3H8 => e + C3H8(v1)		! f9 * Bolsig+ C3H8 -> C3H8(v1)
e + C3H8 => e + C3H8(v2)		! f10 * Bolsig+ C3H8 -> C3H8(v2)
e + C3H6 => e + C3H6(v)		! f11 * Bolsig+ C3H6 -> C3H6(v)
e + CH4 => e + CH3 + H		! f12 * Bolsig+ CH4 -> CH3 H
e + CH4(v24) => e + CH3 + H		! f12 * Bolsig+ CH4(v24) -> CH3 H
e + CH4(v13) => e + CH3 + H		! f12 * Bolsig+ CH4(v13) -> CH3 H
e + CH4 => e + CH2 + H2		! f13 * Bolsig+ CH4 -> CH2 H2
e + CH4(v24) => e + CH2 + H2		! f13 * Bolsig+ CH4(v24) -> CH2 H2
e + CH4(v13) => e + CH2 + H2		! f13 * Bolsig+ CH4(v13) -> CH2 H2
e + CH4 => e + CH + H2 + H		! f14 * Bolsig+ CH4 -> CH H2 H
e + CH4(v24) => e + CH + H2 + H		! f14 * Bolsig+ CH4(v24) -> CH H2 H
e + CH4(v13) => e + CH + H2 + H		! f14 * Bolsig+ CH4(v13) -> CH H2 H
e + CH4 => e + C + H2 + H2		! f15 * Bolsig+ CH4 -> C H2 H2
e + CH4(v24) => e + C + H2 + H2		! f15 * Bolsig+ CH4(v24) -> C H2 H2
e + CH4(v13) => e + C + H2 + H2		! f15 * Bolsig+ CH4(v13) -> C H2 H2
e + CH3 => e + CH2 + H		! f16 * Bolsig+ CH3 -> CH2 H
e + CH3 => e + CH + H2		! f17 * Bolsig+ CH3 -> CH H2
e + CH3 => e + C + H2 + H		! f18 * Bolsig+ CH3 -> C H2 H
e + CH2 => e + CH + H		! f19 * Bolsig+ CH2 -> CH H
e + CH2 => e + C + H2		! f20 * Bolsig+ CH2 -> C H2
e + CH2 => e + C + H + H		! f21 * Bolsig+ CH2 -> C H H
e + CH => e + C + H		! f22 * Bolsig+ CH -> C H
e + CH4 => e + e + CH4^+		! f23 * Bolsig+ CH4 -> CH4^+
e + CH4(v24) => e + e + CH4^+		! f23 * Bolsig+ CH4(v24) -> CH4^+
e + CH4(v13) => e + e + CH4^+		! f23 * Bolsig+ CH4(v13) -> CH4^+
e + CH4 => e + e + H + CH3^+		! f24 * Bolsig+ CH4 -> H CH3^+
e + CH4(v24) => e + e + H + CH3^+		! f24 * Bolsig+ CH4(v24) -> H CH3^+
e + CH4(v13) => e + e + H + CH3^+		! f24 * Bolsig+ CH4(v13) -> H CH3^+
e + CH4 => e + e + H2 + CH2^+		! f25 * Bolsig+ CH4 -> H2 CH2^+
e + CH4(v24) => e + e + H2 + CH2^+		! f25 * Bolsig+ CH4(v24) -> H2 CH2^+
e + CH4(v13) => e + e + H2 + CH2^+		! f25 * Bolsig+ CH4(v13) -> H2 CH2^+
e + CH4 => e + e + H2 + H + CH^+		! f26 * Bolsig+ CH4 -> H2 H CH^+
e + CH4(v24) => e + e + H2 + H + CH^+		! f26 * Bolsig+ CH4(v24) -> H2 H CH^+
e + CH4(v13) => e + e + H2 + H + CH^+		! f26 * Bolsig+ CH4(v13) -> H2 H CH^+
e + CH3 => e + e + CH3^+		! f27 * Bolsig+ CH3 -> CH3^+
e + CH3 => e + e + H + CH2^+		! f28 * Bolsig+ CH3 -> H CH2^+
e + CH3 => e + e + H2 + CH^+		! f29 * Bolsig+ CH3 -> H2 CH^+
e + CH2 => e + e + CH2^+		! f30 * Bolsig+ CH2 -> CH2^+
e + CH2 => e + e + H + CH^+		! f31 * Bolsig+ CH2 -> H CH^+
e + CH => e + e + CH^+		! f32 * Bolsig+ CH -> CH^+
e + C2H6 => e + C2H5 + H		! f33 * Bolsig+ C2H6 -> C2H5 H
e + C2H6(v24) => e + C2H5 + H		! f33 * Bolsig+ C2H6(v24) -> C2H5 H
e + C2H6(v13) => e + C2H5 + H		! f33 * Bolsig+ C2H6(v13) -> C2H5 H
e + C2H6 => e + C2H4 + H2		! f34 * Bolsig+ C2H6 -> C2H4 H2
e + C2H6(v24) => e + C2H4 + H2		! f34 * Bolsig+ C2H6(v24) -> C2H4 H2
e + C2H6(v13) => e + C2H4 + H2		! f34 * Bolsig+ C2H6(v13) -> C2H4 H2
e + C2H6 => e + C2H3 + H2 + H		! f35 * Bolsig+ C2H6 -> C2H3 H2 H
e + C2H6(v24) => e + C2H3 + H2 + H		! f35 * Bolsig+ C2H6(v24) -> C2H3 H2 H
e + C2H6(v13) => e + C2H3 + H2 + H		! f35 * Bolsig+ C2H6(v13) -> C2H3 H2 H
e + C2H6 => e + C2H2 + H2 + H2		! f36 * Bolsig+ C2H6 -> C2H2 H2 H2
e + C2H6(v24) => e + C2H2 + H2 + H2		! f36 * Bolsig+ C2H6(v24) -> C2H2 H2 H2
e + C2H6(v13) => e + C2H2 + H2 + H2		! f36 * Bolsig+ C2H6(v13) -> C2H2 H2 H2
e + C2H6 => e + CH4 + CH2		! f37 * Bolsig+ C2H6 -> CH4 CH2
e + C2H6(v24) => e + CH4 + CH2		! f37 * Bolsig+ C2H6(v24) -> CH4 CH2
e + C2H6(v13) => e + CH4 + CH2		! f37 * Bolsig+ C2H6(v13) -> CH4 CH2
e + C2H6 => e + CH3 + CH3		! f38 * Bolsig+ C2H6 -> CH3 CH3
e + C2H6(v24) => e + CH3 + CH3		! f38 * Bolsig+ C2H6(v24) -> CH3 CH3
e + C2H6(v13) => e + CH3 + CH3		! f38 * Bolsig+ C2H6(v13) -> CH3 CH3
e + C2H5 => e + C2H4 + H		! f39 * Bolsig+ C2H5 -> C2H4 H
e + C2H5 => e + C2H3 + H2		! f40 * Bolsig+ C2H5 -> C2H3 H2
e + C2H5 => e + C2H3 + H + H		! f41 * Bolsig+ C2H5 -> C2H3 H H
e + C2H5 => e + C2H2 + H2 + H		! f42 * Bolsig+ C2H5 -> C2H2 H2 H
e + C2H5 => e + CH4 + CH		! f43 * Bolsig+ C2H5 -> CH4 CH
e + C2H5 => e + CH3 + CH2		! f44 * Bolsig+ C2H5 -> CH3 CH2
e + C2H4 => e + C2H3 + H		! f45 * Bolsig+ C2H4 -> C2H3 H
e + C2H4(v1) => e + C2H3 + H		! f45 * Bolsig+ C2H4(v1) -> C2H3 H
e + C2H4(v2) => e + C2H3 + H		! f45 * Bolsig+ C2H4(v2) -> C2H3 H
e + C2H4 => e + C2H2 + H2		! f46 * Bolsig+ C2H4 -> C2H2 H2
e + C2H4(v1) => e + C2H2 + H2		! f46 * Bolsig+ C2H4(v1) -> C2H2 H2
e + C2H4(v2) => e + C2H2 + H2		! f46 * Bolsig+ C2H4(v2) -> C2H2 H2
e + C2H4 => e + C2H2 + H + H		! f47 * Bolsig+ C2H4 -> C2H2 H H
e + C2H4(v1) => e + C2H2 + H + H		! f47 * Bolsig+ C2H4(v1) -> C2H2 H H
e + C2H4(v2) => e + C2H2 + H + H		! f47 * Bolsig+ C2H4(v2) -> C2H2 H H
e + C2H4 => e + CH3 + CH		! f48 * Bolsig+ C2H4 -> CH3 CH
e + C2H4(v1) => e + CH3 + CH		! f48 * Bolsig+ C2H4(v1) -> CH3 CH
e + C2H4(v2) => e + CH3 + CH		! f48 * Bolsig+ C2H4(v2) -> CH3 CH
e + C2H4 => e + CH2 + CH2		! f49 * Bolsig+ C2H4 -> CH2 CH2
e + C2H4(v1) => e + CH2 + CH2		! f49 * Bolsig+ C2H4(v1) -> CH2 CH2
e + C2H4(v2) => e + CH2 + CH2		! f49 * Bolsig+ C2H4(v2) -> CH2 CH2
e + C2H3 => e + C2H2 + H		! f50 * Bolsig+ C2H3 -> C2H2 H
e + C2H3 => e + CH2 + CH		! f51 * Bolsig+ C2H3 -> CH2 CH
e + C2H2 => e + CH + CH		! f52 * Bolsig+ C2H2 -> CH CH
e + C2H2(v5) => e + CH + CH		! f52 * Bolsig+ C2H2(v5) -> CH CH
e + C2H2(v2) => e + CH + CH		! f52 * Bolsig+ C2H2(v2) -> CH CH
e + C2H2(v13) => e + CH + CH		! f52 * Bolsig+ C2H2(v13) -> CH CH
e + C2H6 => e + e + C2H6^+		! f53 * Bolsig+ C2H6 -> C2H6^+
e + C2H6(v24) => e + e + C2H6^+		! f53 * Bolsig+ C2H6(v24) -> C2H6^+
e + C2H6(v13) => e + e + C2H6^+		! f53 * Bolsig+ C2H6(v13) -> C2H6^+
e + C2H6 => e + e + H + C2H5^+		! f54 * Bolsig+ C2H6 -> H C2H5^+
e + C2H6(v24) => e + e + H + C2H5^+		! f54 * Bolsig+ C2H6(v24) -> H C2H5^+
e + C2H6(v13) => e + e + H + C2H5^+		! f54 * Bolsig+ C2H6(v13) -> H C2H5^+
e + C2H6 => e + e + H2 + C2H4^+		! f55 * Bolsig+ C2H6 -> H2 C2H4^+
e + C2H6(v24) => e + e + H2 + C2H4^+		! f55 * Bolsig+ C2H6(v24) -> H2 C2H4^+
e + C2H6(v13) => e + e + H2 + C2H4^+		! f55 * Bolsig+ C2H6(v13) -> H2 C2H4^+
e + C2H6 => e + e + H2 + H + C2H3^+		! f56 * Bolsig+ C2H6 -> H2 H C2H3^+
e + C2H6(v24) => e + e + H2 + H + C2H3^+		! f56 * Bolsig+ C2H6(v24) -> H2 H C2H3^+
e + C2H6(v13) => e + e + H2 + H + C2H3^+		! f56 * Bolsig+ C2H6(v13) -> H2 H C2H3^+
e + C2H6 => e + e + H2 + H2 + C2H2^+		! f57 * Bolsig+ C2H6 -> H2 H2 C2H2^+
e + C2H6(v24) => e + e + H2 + H2 + C2H2^+		! f57 * Bolsig+ C2H6(v24) -> H2 H2 C2H2^+
e + C2H6(v13) => e + e + H2 + H2 + C2H2^+		! f57 * Bolsig+ C2H6(v13) -> H2 H2 C2H2^+
e + C2H6 => e + e + CH3 + CH3^+		! f58 * Bolsig+ C2H6 -> CH3 CH3^+
e + C2H6(v24) => e + e + CH3 + CH3^+		! f58 * Bolsig+ C2H6(v24) -> CH3 CH3^+
e + C2H6(v13) => e + e + CH3 + CH3^+		! f58 * Bolsig+ C2H6(v13) -> CH3 CH3^+
e + C2H6 => e + e + CH4 + CH2^+		! f59 * Bolsig+ C2H6 -> CH4 CH2^+
e + C2H6(v24) => e + e + CH4 + CH2^+		! f59 * Bolsig+ C2H6(v24) -> CH4 CH2^+
e + C2H6(v13) => e + e + CH4 + CH2^+		! f59 * Bolsig+ C2H6(v13) -> CH4 CH2^+
e + C2H5 => e + e + C2H5^+		! f60 * Bolsig+ C2H5 -> C2H5^+
e + C2H5 => e + e + H + C2H4^+		! f61 * Bolsig+ C2H5 -> H C2H4^+
e + C2H5 => e + e + H2 + C2H3^+		! f62 * Bolsig+ C2H5 -> H2 C2H3^+
e + C2H5 => e + e + H2 + H + C2H2^+		! f63 * Bolsig+ C2H5 -> H2 H C2H2^+
e + C2H5 => e + e + CH2 + CH3^+		! f64 * Bolsig+ C2H5 -> CH2 CH3^+
e + C2H5 => e + e + CH3 + CH2^+		! f65 * Bolsig+ C2H5 -> CH3 CH2^+
e + C2H5 => e + e + CH4 + CH^+		! f66 * Bolsig+ C2H5 -> CH4 CH^+
e + C2H4 => e + e + C2H4^+		! f67 * Bolsig+ C2H4 -> C2H4^+
e + C2H4(v1) => e + e + C2H4^+		! f67 * Bolsig+ C2H4(v1) -> C2H4^+
e + C2H4(v2) => e + e + C2H4^+		! f67 * Bolsig+ C2H4(v2) -> C2H4^+
e + C2H4 => e + e + H + C2H3^+		! f68 * Bolsig+ C2H4 -> H C2H3^+
e + C2H4(v1) => e + e + H + C2H3^+		! f68 * Bolsig+ C2H4(v1) -> H C2H3^+
e + C2H4(v2) => e + e + H + C2H3^+		! f68 * Bolsig+ C2H4(v2) -> H C2H3^+
e + C2H4 => e + e + CH + CH3^+		! f69 * Bolsig+ C2H4 -> CH CH3^+
e + C2H4(v1) => e + e + CH + CH3^+		! f69 * Bolsig+ C2H4(v1) -> CH CH3^+
e + C2H4(v2) => e + e + CH + CH3^+		! f69 * Bolsig+ C2H4(v2) -> CH CH3^+
e + C2H4 => e + e + CH2 + CH2^+		! f70 * Bolsig+ C2H4 -> CH2 CH2^+
e + C2H4(v1) => e + e + CH2 + CH2^+		! f70 * Bolsig+ C2H4(v1) -> CH2 CH2^+
e + C2H4(v2) => e + e + CH2 + CH2^+		! f70 * Bolsig+ C2H4(v2) -> CH2 CH2^+
e + C2H4 => e + e + CH3 + CH^+		! f71 * Bolsig+ C2H4 -> CH3 CH^+
e + C2H4(v1) => e + e + CH3 + CH^+		! f71 * Bolsig+ C2H4(v1) -> CH3 CH^+
e + C2H4(v2) => e + e + CH3 + CH^+		! f71 * Bolsig+ C2H4(v2) -> CH3 CH^+
e + C2H3 => e + e + C2H3^+		! f72 * Bolsig+ C2H3 -> C2H3^+
e + C2H3 => e + e + H + C2H2^+		! f73 * Bolsig+ C2H3 -> H C2H2^+
e + C2H3 => e + e + CH + CH2^+		! f74 * Bolsig+ C2H3 -> CH CH2^+
e + C2H3 => e + e + CH2 + CH^+		! f75 * Bolsig+ C2H3 -> CH2 CH^+
e + C2H3 => e + e + C2H2 + H^+		! f76 * Bolsig+ C2H3 -> C2H2 H^+
e + C2H2 => e + e + C2H2^+		! f77 * Bolsig+ C2H2 -> C2H2^+
e + C2H2(v5) => e + e + C2H2^+		! f77 * Bolsig+ C2H2(v5) -> C2H2^+
e + C2H2(v2) => e + e + C2H2^+		! f77 * Bolsig+ C2H2(v2) -> C2H2^+
e + C2H2(v13) => e + e + C2H2^+		! f77 * Bolsig+ C2H2(v13) -> C2H2^+
e + C2H2 => e + e + CH + CH^+		! f78 * Bolsig+ C2H2 -> CH CH^+
e + C2H2(v5) => e + e + CH + CH^+		! f78 * Bolsig+ C2H2(v5) -> CH CH^+
e + C2H2(v2) => e + e + CH + CH^+		! f78 * Bolsig+ C2H2(v2) -> CH CH^+
e + C2H2(v13) => e + e + CH + CH^+		! f78 * Bolsig+ C2H2(v13) -> CH CH^+
e + C3H8 => e + C3H7 + H		! f79 * Bolsig+ C3H8 -> C3H7 H
e + C3H8(v1) => e + C3H7 + H		! f79 * Bolsig+ C3H8(v1) -> C3H7 H
e + C3H8(v2) => e + C3H7 + H		! f79 * Bolsig+ C3H8(v2) -> C3H7 H
e + C3H8 => e + C3H6 + H2		! f80 * Bolsig+ C3H8 -> C3H6 H2
e + C3H8(v1) => e + C3H6 + H2		! f80 * Bolsig+ C3H8(v1) -> C3H6 H2
e + C3H8(v2) => e + C3H6 + H2		! f80 * Bolsig+ C3H8(v2) -> C3H6 H2
e + C3H7 => e + C3H6 + H		! f81 * Bolsig+ C3H7 -> C3H6 H
e + C3H8 => e + e + C3H8^+		! f82 * Bolsig+ C3H8 -> C3H8^+
e + C3H8(v1) => e + e + C3H8^+		! f82 * Bolsig+ C3H8(v1) -> C3H8^+
e + C3H8(v2) => e + e + C3H8^+		! f82 * Bolsig+ C3H8(v2) -> C3H8^+
e + C3H8 => e + e + H + C3H7^+		! f83 * Bolsig+ C3H8 -> H C3H7^+
e + C3H8(v1) => e + e + H + C3H7^+		! f83 * Bolsig+ C3H8(v1) -> H C3H7^+
e + C3H8(v2) => e + e + H + C3H7^+		! f83 * Bolsig+ C3H8(v2) -> H C3H7^+
e + C3H8 => e + e + H2 + C3H6^+		! f84 * Bolsig+ C3H8 -> H2 C3H6^+
e + C3H8(v1) => e + e + H2 + C3H6^+		! f84 * Bolsig+ C3H8(v1) -> H2 C3H6^+
e + C3H8(v2) => e + e + H2 + C3H6^+		! f84 * Bolsig+ C3H8(v2) -> H2 C3H6^+
e + C3H7 => e + e + C3H7^+		! f85 * Bolsig+ C3H7 -> C3H7^+
e + C3H7 => e + e + H + C3H6^+		! f86 * Bolsig+ C3H7 -> H C3H6^+
e + C3H6 => e + e + C3H6^+		! f87 * Bolsig+ C3H6 -> C3H6^+
e + C3H6(v) => e + e + C3H6^+		! f87 * Bolsig+ C3H6(v) -> C3H6^+
e + C3H6 => e + C2H2 + CH4		! f88 * Bolsig+ C3H6 -> C2H2 CH4
e + C3H6(v) => e + C2H2 + CH4		! f88 * Bolsig+ C3H6(v) -> C2H2 CH4
e + C3H6 => e + e + C2H2 + CH4^+		! f89 * Bolsig+ C3H6 -> C2H2 CH4^+
e + C3H6(v) => e + e + C2H2 + CH4^+		! f89 * Bolsig+ C3H6(v) -> C2H2 CH4^+

# Ion Recombination Reaction
e + e + CH^+ => e + CH		! f90 * 1.00d0
e + e + CH2^+ => e + CH2		! f91 * 1.00d0
e + e + CH3^+ => e + CH3		! f92 * 1.00d0
e + e + CH4^+ => e + CH4		! f93 * 1.00d0
e + e + C2H2^+ => e + C2H2		! f94 * 1.00d0
e + e + C2H3^+ => e + C2H3		! f95 * 1.00d0
e + e + C2H4^+ => e + C2H4		! f96 * 1.00d0
e + e + C2H5^+ => e + C2H5		! f97 * 1.00d0
e + e + C2H6^+ => e + C2H6		! f98 * 1.00d0
e + e + C3H6^+ => e + C3H6		! f99 * 1.00d0
e + e + C3H7^+ => e + C3H7		! f100 * 1.00d0
e + e + C3H8^+ => e + C3H8		! f101 * 1.00d0

# Gas Phase Reaction
e + CH4^+ => CH3 + H		! f102 * 1.18d-08 * (300./Tgas)**0.5
e + CH4^+ => CH2 + H + H		! f103 * 2.42d-08 * (300./Tgas)**0.5
e + CH4^+ => CH + H2 + H		! f104 * 1.41d-08 * (300./Tgas)**0.5
e + CH3^+ => CH2 + H		! f105 * 2.25d-08 * (300./Tgas)**0.5
e + CH3^+ => CH + H2		! f106 * 7.88d-09 * (300./Tgas)**0.5
e + CH3^+ => CH + H + H		! f107 * 9.00d-09 * (300./Tgas)**0.5
e + CH3^+ => C + H2 + H		! f108 * 1.69d-08 * (300./Tgas)**0.5
e + CH2^+ => CH + H		! f109 * 1.00d-08 * (300./Tgas)**0.5
e + CH2^+ => C + H2		! f110 * 4.82d-09 * (300./Tgas)**0.5
e + CH2^+ => C + H + H		! f111 * 2.53d-08 * (300./Tgas)**0.5
e + CH^+ => C + H		! f112 * 3.23d-08 * (300./Tgas)**0.42
e + C2H6^+ => C2H5 + H		! f113 * 2.19d-08 * (300./Tgas)**0.71
e + C2H6^+ => C2H4 + H + H		! f114 * 3.36d-08 * (300./Tgas)**0.71
e + C2H5^+ => C2H4 + H		! f115 * 7.70d-09 * (300./Tgas)**0.71
e + C2H5^+ => C2H3 + H + H		! f116 * 1.92d-08 * (300./Tgas)**0.71
e + C2H5^+ => C2H2 + H2 + H		! f117 * 1.60d-08 * (300./Tgas)**0.71
e + C2H5^+ => C2H2 + H + H + H		! f118 * 8.98d-09 * (300./Tgas)**0.71
e + C2H5^+ => CH3 + CH2		! f119 * 9.62d-09 * (300./Tgas)**0.71
e + C2H4^+ => C2H3 + H		! f120 * 8.29d-09 * (300./Tgas)**0.71
e + C2H4^+ => C2H2 + H + H		! f121 * 3.43d-08 * (300./Tgas)**0.71
e + C2H3^+ => C2H2 + H		! f122 * 1.34d-08 * (300./Tgas)**0.71
e + C2H2^+ => CH + CH		! f123 * 4.87d-09 * (300./Tgas)**0.71
e + H2^+ => H + H		! f124 * 3.17d21/(6.022d23 * Te**4.5)
e + H3^+ => H + H2		! f125 * 3.17d21/(6.022d23 * Te**4.5)
H2 + H2^+ => H + H3^+		! f126 * 2.11d-09
C2H6 + CH4^+ => CH4 + H2 + C2H4^+		! f127 * 1.91d-9
C2H6(v24) + CH4^+ => CH4 + H2 + C2H4^+		! f127 * 1.91d-9
C2H6(v13) + CH4^+ => CH4 + H2 + C2H4^+		! f127 * 1.91d-9
C2H4 + CH4^+ => CH3 + C2H5^+		! f128 * 4.23d-10