ELEMENTS
e C H
END

SPECIES
e C CH CH^+ CH2 CH2^+ CH3 CH3^+ CH4 CH4(v13) CH4(v24) CH4^+ C2H2 C2H2(v13) C2H2(v2) C2H2(v5) C2H2^+ C2H3 C2H3^+ C2H4 C2H4(v1) C2H4(v2) C2H4^+ C2H5 C2H5^+
C2H6 C2H6(v13) C2H6(v24) C2H6^+ C3H5 C3H6 C3H6(v) C3H6^+ C3H7 C3H7^+ C3H8 C3H8(v1) C3H8(v2) C3H8^+ C4H9 C4H9H C2H C5H12 H H2 H2^+ H3^+ H^+
END

BOLSIG
CH CH2 CH3 CH4 CH4(v13) CH4(v24) C2H2 C2H2(v13) C2H2(v2) C2H2(v5) C2H3 C2H4 C2H4(v1) C2H4(v2) C2H5 C2H6 C2H6(v13) C2H6(v24) C3H6 C3H6(v) C3H7 C3H8 C3H8(v1) C3H8(v2)
END

REACTIONS
# Gas Constant
$ double precision, parameter :: R = 8.314d-3

# Compensation Parameters
$ double precision, parameter :: f0 = 1.8591d0
$ double precision, parameter :: f1 = 3.1230d-8
$ double precision, parameter :: f2 = 3.1155d+2
$ double precision, parameter :: f3 = 3.0303d-8
$ double precision, parameter :: f4 = 6.5287d-2
$ double precision, parameter :: f5 = 2.2205d-3
$ double precision, parameter :: f6 = 1.1049d-6
$ double precision, parameter :: f7 = 6.3136d-1
$ double precision, parameter :: f8 = 4.4752d-5
$ double precision, parameter :: f9 = 2.6730d-2
$ double precision, parameter :: f10 = 1.4008d-4
$ double precision, parameter :: f11 = 8.8880d+1
$ double precision, parameter :: f12 = 9.7638d-8
$ double precision, parameter :: f13 = 2.7060d-7
$ double precision, parameter :: f14 = 1.1107d0
$ double precision, parameter :: f15 = 2.0481d-2
$ double precision, parameter :: f16 = 2.0689d-8
$ double precision, parameter :: f17 = 1.9560d-3
$ double precision, parameter :: f18 = 3.9158d+1
$ double precision, parameter :: f19 = 7.2897d+2
$ double precision, parameter :: f20 = 2.8364d0
$ double precision, parameter :: f21 = 1.5641d-4
$ double precision, parameter :: f22 = 2.2974d-1
$ double precision, parameter :: f23 = 1.8399d-5
$ double precision, parameter :: f24 = 5.9001d-1
$ double precision, parameter :: f25 = 2.7876d-8
$ double precision, parameter :: f26 = 4.3935d-3
$ double precision, parameter :: f27 = 2.3411d-2
$ double precision, parameter :: f28 = 3.6681d-4
$ double precision, parameter :: f29 = 7.9923d-3
$ double precision, parameter :: f30 = 4.7502d-2
$ double precision, parameter :: f31 = 1.2693d-4
$ double precision, parameter :: f32 = 4.5343d-1
$ double precision, parameter :: f33 = 9.2019d+1
$ double precision, parameter :: f34 = 1.1800d-5
$ double precision, parameter :: f35 = 1.1583d-4
$ double precision, parameter :: f36 = 2.1396d+1
$ double precision, parameter :: f37 = 6.8849d+2
$ double precision, parameter :: f38 = 1.9052d-5
$ double precision, parameter :: f39 = 1.2416d-3
$ double precision, parameter :: f40 = 6.2554d-2
$ double precision, parameter :: f41 = 2.4211d0
$ double precision, parameter :: f42 = 6.2756d-5
$ double precision, parameter :: f43 = 8.2929d-5
$ double precision, parameter :: f44 = 7.1032d-3
$ double precision, parameter :: f45 = 3.1927d-3
$ double precision, parameter :: f46 = 1.2929d-2
$ double precision, parameter :: f47 = 2.2705d-1
$ double precision, parameter :: f48 = 3.6389d-5
$ double precision, parameter :: f49 = 1.0108d-1
$ double precision, parameter :: f50 = 1.7741d-2
$ double precision, parameter :: f51 = 3.7597d-3
$ double precision, parameter :: f52 = 6.9183d-2
$ double precision, parameter :: f53 = 1.7796d-8
$ double precision, parameter :: f54 = 6.5948d-2
$ double precision, parameter :: f55 = 6.5028d-8
$ double precision, parameter :: f56 = 6.7951d-3
$ double precision, parameter :: f57 = 1.0157d+1
$ double precision, parameter :: f58 = 6.1196d0
$ double precision, parameter :: f59 = 1.3393d+2
$ double precision, parameter :: f60 = 3.8959d-4
$ double precision, parameter :: f61 = 2.4347d-4
$ double precision, parameter :: f62 = 2.4206d-7
$ double precision, parameter :: f63 = 1.8754d-6
$ double precision, parameter :: f64 = 3.7549d-3
$ double precision, parameter :: f65 = 2.1173d-4
$ double precision, parameter :: f66 = 8.5795d-3
$ double precision, parameter :: f67 = 6.7418d-4
$ double precision, parameter :: f68 = 2.3408d+2
$ double precision, parameter :: f69 = 2.8112d+2
$ double precision, parameter :: f70 = 2.6938d-4
$ double precision, parameter :: f71 = 9.8527d-1
$ double precision, parameter :: f72 = 2.5566d+2
$ double precision, parameter :: f73 = 6.6575d-6
$ double precision, parameter :: f74 = 6.3007d+2
$ double precision, parameter :: f75 = 5.8550d+1
$ double precision, parameter :: f76 = 1.2730d0
$ double precision, parameter :: f77 = 2.4398d-2
$ double precision, parameter :: f78 = 2.8147d-4
$ double precision, parameter :: f79 = 4.4647d-3
$ double precision, parameter :: f80 = 3.0442d-8
$ double precision, parameter :: f81 = 2.8547d-5
$ double precision, parameter :: f82 = 3.6981d-1
$ double precision, parameter :: f83 = 7.8938d+2
$ double precision, parameter :: f84 = 1.1775d-2
$ double precision, parameter :: f85 = 1.1723d0
$ double precision, parameter :: f86 = 8.2575d-7
$ double precision, parameter :: f87 = 6.4071d-4
$ double precision, parameter :: f88 = 3.6089d-2
$ double precision, parameter :: f89 = 6.7510d-4
$ double precision, parameter :: f90 = 1.9806d+1
$ double precision, parameter :: f91 = 5.8020d0
$ double precision, parameter :: f92 = 6.8232d-6
$ double precision, parameter :: f93 = 4.4932d+2
$ double precision, parameter :: f94 = 2.3367d0
$ double precision, parameter :: f95 = 3.4980d-8
$ double precision, parameter :: f96 = 3.7484d0
$ double precision, parameter :: f97 = 5.0603d-7
$ double precision, parameter :: f98 = 5.9166d-8
$ double precision, parameter :: f99 = 3.1703d-3
$ double precision, parameter :: f100 = 9.2483d0
$ double precision, parameter :: f101 = 1.3425d-8
$ double precision, parameter :: f102 = 2.3401d-3
$ double precision, parameter :: f103 = 1.7409d+1
$ double precision, parameter :: f104 = 6.2548d-6
$ double precision, parameter :: f105 = 9.2562d+1
$ double precision, parameter :: f106 = 8.9786d-1
$ double precision, parameter :: f107 = 9.1917d-2
$ double precision, parameter :: f108 = 1.5024d-6
$ double precision, parameter :: f109 = 3.6666d+2
$ double precision, parameter :: f110 = 6.1701d-4
$ double precision, parameter :: f111 = 1.3798d-5
$ double precision, parameter :: f112 = 8.3770d-2
$ double precision, parameter :: f113 = 2.8195d+1
$ double precision, parameter :: f114 = 9.1425d-1
$ double precision, parameter :: f115 = 1.2259d+2
$ double precision, parameter :: f116 = 4.3649d-1
$ double precision, parameter :: f117 = 1.7084d-7
$ double precision, parameter :: f118 = 3.0165d-7
$ double precision, parameter :: f119 = 1.9899d-2
$ double precision, parameter :: f120 = 3.9341d+1
$ double precision, parameter :: f121 = 2.6838d-8
$ double precision, parameter :: f122 = 7.2035d-4
$ double precision, parameter :: f123 = 1.5163d-4
$ double precision, parameter :: f124 = 8.2898d-3
$ double precision, parameter :: f125 = 1.0818d-7
$ double precision, parameter :: f126 = 4.7784d-7
$ double precision, parameter :: f127 = 5.4081d-1
$ double precision, parameter :: f128 = 2.1546d-5
$ double precision, parameter :: f129 = 4.7088d+2
$ double precision, parameter :: f130 = 5.2384d-4
$ double precision, parameter :: f131 = 9.5554d-5
$ double precision, parameter :: f132 = 3.2566d-8
$ double precision, parameter :: f133 = 2.8218d-4
$ double precision, parameter :: f134 = 1.3654d0
$ double precision, parameter :: f135 = 6.2077d-3
$ double precision, parameter :: f136 = 1.1819d-3
$ double precision, parameter :: f137 = 2.1564d-8
$ double precision, parameter :: f138 = 3.6895d-3
$ double precision, parameter :: f139 = 3.7664d0
$ double precision, parameter :: f140 = 8.3929d+2
$ double precision, parameter :: f141 = 1.4171d-6
$ double precision, parameter :: f142 = 1.0767d-1
$ double precision, parameter :: f143 = 4.2378d-3
$ double precision, parameter :: f144 = 2.6415d-2
$ double precision, parameter :: f145 = 1.0241d+1
$ double precision, parameter :: f146 = 1.9648d+2
$ double precision, parameter :: f147 = 1.1122d-3
$ double precision, parameter :: f148 = 4.6695d+1
$ double precision, parameter :: f149 = 2.2631d-7
$ double precision, parameter :: f150 = 1.3886d-7
$ double precision, parameter :: f151 = 7.3888d-7
$ double precision, parameter :: f152 = 3.7486d-4
$ double precision, parameter :: f153 = 1.6124d-3
$ double precision, parameter :: f154 = 2.1564d-3
$ double precision, parameter :: f155 = 3.8900d-8
$ double precision, parameter :: f156 = 4.3383d0
$ double precision, parameter :: f157 = 2.1757d+1
$ double precision, parameter :: f158 = 2.1808d-4
$ double precision, parameter :: f159 = 3.0907d-7
$ double precision, parameter :: f160 = 4.0894d-5
$ double precision, parameter :: f161 = 1.0135d-5
$ double precision, parameter :: f162 = 4.5746d+2
$ double precision, parameter :: f163 = 5.3079d-6
$ double precision, parameter :: f164 = 1.6207d+1
$ double precision, parameter :: f165 = 6.4355d0
$ double precision, parameter :: f166 = 2.1294d-2
$ double precision, parameter :: f167 = 1.2798d-8
$ double precision, parameter :: f168 = 3.8907d+1
$ double precision, parameter :: f169 = 1.0321d-2
$ double precision, parameter :: f170 = 3.3896d+2
$ double precision, parameter :: f171 = 3.9940d-8
$ double precision, parameter :: f172 = 1.0399d+2
$ double precision, parameter :: f173 = 7.2784d-6
$ double precision, parameter :: f174 = 5.3313d0
$ double precision, parameter :: f175 = 3.5014d+1
$ double precision, parameter :: f176 = 5.3985d+1
$ double precision, parameter :: f177 = 3.2373d-3
$ double precision, parameter :: f178 = 1.3649d-1
$ double precision, parameter :: f179 = 4.8926d-3
$ double precision, parameter :: f180 = 7.5514d0
$ double precision, parameter :: f181 = 4.1730d-2
$ double precision, parameter :: f182 = 2.7684d-1
$ double precision, parameter :: f183 = 5.1640d-4
$ double precision, parameter :: f184 = 7.8756d0
$ double precision, parameter :: f185 = 1.0539d0
$ double precision, parameter :: f186 = 4.4916d-1
$ double precision, parameter :: f187 = 9.0013d-4
$ double precision, parameter :: f188 = 1.5466d-2
$ double precision, parameter :: f189 = 5.9209d-5
$ double precision, parameter :: f190 = 1.6980d-2
$ double precision, parameter :: f191 = 2.6868d-8
$ double precision, parameter :: f192 = 1.5435d-2
$ double precision, parameter :: f193 = 1.0874d-2
$ double precision, parameter :: f194 = 8.7223d-6
$ double precision, parameter :: f195 = 5.0155d-4
$ double precision, parameter :: f196 = 2.1722d+2
$ double precision, parameter :: f197 = 7.6758d+1
$ double precision, parameter :: f198 = 1.7649d+1
$ double precision, parameter :: f199 = 6.9837d-3
$ double precision, parameter :: f200 = 1.9748d0
$ double precision, parameter :: f201 = 2.6841d-4
$ double precision, parameter :: f202 = 5.1537d-7
$ double precision, parameter :: f203 = 6.7445d-2
$ double precision, parameter :: f204 = 7.4631d-5
$ double precision, parameter :: f205 = 6.5870d-1
$ double precision, parameter :: f206 = 2.9505d-6
$ double precision, parameter :: f207 = 2.3784d-1
$ double precision, parameter :: f208 = 1.1542d-5
$ double precision, parameter :: f209 = 1.3951d-7
$ double precision, parameter :: f210 = 3.0971d+1
$ double precision, parameter :: f211 = 2.1471d-5
$ double precision, parameter :: f212 = 2.8566d-1
$ double precision, parameter :: f213 = 2.6406d-4
$ double precision, parameter :: f214 = 8.1756d-1
$ double precision, parameter :: f215 = 1.0301d+1
$ double precision, parameter :: f216 = 9.1995d-5
$ double precision, parameter :: f217 = 1.2774d-6
$ double precision, parameter :: f218 = 1.1269d+2
$ double precision, parameter :: f219 = 2.0672d-6
$ double precision, parameter :: f220 = 1.9724d-4
$ double precision, parameter :: f221 = 1.7419d-2
$ double precision, parameter :: f222 = 3.6562d+1
$ double precision, parameter :: f223 = 9.2136d-7
$ double precision, parameter :: f224 = 3.5984d-7
$ double precision, parameter :: f225 = 1.2282d-2
$ double precision, parameter :: f226 = 3.0053d+2
$ double precision, parameter :: f227 = 1.5855d-7
$ double precision, parameter :: f228 = 3.2567d-2
$ double precision, parameter :: f229 = 7.5183d-4
$ double precision, parameter :: f230 = 1.7747d-2
$ double precision, parameter :: f231 = 2.9151d-1
$ double precision, parameter :: f232 = 2.1460d-4
$ double precision, parameter :: f233 = 3.8189d+1
$ double precision, parameter :: f234 = 1.1803d-4
$ double precision, parameter :: f235 = 1.7890d-4
$ double precision, parameter :: f236 = 2.0311d-3
$ double precision, parameter :: f237 = 1.0503d-5
$ double precision, parameter :: f238 = 9.3089d0
$ double precision, parameter :: f239 = 5.1662d-7
$ double precision, parameter :: f240 = 3.4190d-1
$ double precision, parameter :: f241 = 7.1641d0
$ double precision, parameter :: f242 = 6.0378d-7
$ double precision, parameter :: f243 = 3.5569d-8
$ double precision, parameter :: f244 = 1.8138d-6
$ double precision, parameter :: f245 = 1.1154d-8
$ double precision, parameter :: f246 = 1.1299d+2
$ double precision, parameter :: f247 = 7.2166d-4
$ double precision, parameter :: f248 = 1.0643d-4
$ double precision, parameter :: f249 = 1.0557d+1
$ double precision, parameter :: f250 = 2.6649d-7
$ double precision, parameter :: f251 = 2.0971d-3
$ double precision, parameter :: f252 = 3.1051d-7
$ double precision, parameter :: f253 = 7.9234d-3
$ double precision, parameter :: f254 = 1.1853d-1
$ double precision, parameter :: f255 = 5.1105d-4
$ double precision, parameter :: f256 = 3.4166d-6
$ double precision, parameter :: f257 = 2.4695d-5
$ double precision, parameter :: f258 = 9.7718d+2
$ double precision, parameter :: f259 = 1.1893d-2
$ double precision, parameter :: f260 = 2.7319d+2
$ double precision, parameter :: f261 = 8.8853d-1
$ double precision, parameter :: f262 = 1.5009d-8
$ double precision, parameter :: f263 = 3.1390d-6
$ double precision, parameter :: f264 = 1.5051d-2
$ double precision, parameter :: f265 = 8.3454d+2
$ double precision, parameter :: f266 = 9.8049d-2
$ double precision, parameter :: f267 = 1.6423d-5
$ double precision, parameter :: f268 = 7.0531d-3
$ double precision, parameter :: f269 = 4.5604d+2
$ double precision, parameter :: f270 = 8.5744d-8
$ double precision, parameter :: f271 = 1.5582d-6
$ double precision, parameter :: f272 = 1.5993d-3
$ double precision, parameter :: f273 = 2.7610d+1
$ double precision, parameter :: f274 = 7.3604d-5
$ double precision, parameter :: f275 = 8.5141d-8
$ double precision, parameter :: f276 = 4.1257d-1
$ double precision, parameter :: f277 = 1.0673d-5
$ double precision, parameter :: f278 = 4.9542d-2
$ double precision, parameter :: f279 = 2.1262d-6
$ double precision, parameter :: f280 = 4.3592d-5
$ double precision, parameter :: f281 = 6.9756d0
$ double precision, parameter :: f282 = 1.3684d+2
$ double precision, parameter :: f283 = 2.1929d+2
$ double precision, parameter :: f284 = 8.1366d+2
$ double precision, parameter :: f285 = 9.1251d+1
$ double precision, parameter :: f286 = 5.3610d-3
$ double precision, parameter :: f287 = 5.4149d-5
$ double precision, parameter :: f288 = 4.7459d-6
$ double precision, parameter :: f289 = 3.4889d-4
$ double precision, parameter :: f290 = 3.6031d-8
$ double precision, parameter :: f291 = 1.2919d0
$ double precision, parameter :: f292 = 5.3881d-8
$ double precision, parameter :: f293 = 4.7814d-8
$ double precision, parameter :: f294 = 1.4927d-4
$ double precision, parameter :: f295 = 1.4808d-3
$ double precision, parameter :: f296 = 1.4873d+2
$ double precision, parameter :: f297 = 2.1905d-6
$ double precision, parameter :: f298 = 3.5681d-2
$ double precision, parameter :: f299 = 1.9291d-8
$ double precision, parameter :: f300 = 8.3167d-8
$ double precision, parameter :: f301 = 8.9172d0
$ double precision, parameter :: f302 = 9.3107d-5
$ double precision, parameter :: f303 = 8.1445d-1
$ double precision, parameter :: f304 = 1.4580d-4
$ double precision, parameter :: f305 = 5.8749d-6
$ double precision, parameter :: f306 = 9.9637d-1
$ double precision, parameter :: f307 = 4.9150d-7
$ double precision, parameter :: f308 = 1.3069d0
$ double precision, parameter :: f309 = 3.0716d-2
$ double precision, parameter :: f310 = 2.9690d-8
$ double precision, parameter :: f311 = 3.2053d-4
$ double precision, parameter :: f312 = 5.5194d-6
$ double precision, parameter :: f313 = 5.1194d-7
$ double precision, parameter :: f314 = 7.9824d+1
$ double precision, parameter :: f315 = 6.9301d-4

# Electron Collision Reaction
e + CH4 => e + CH4(v24)		! f0 * Bolsig+ CH4 -> CH4(v24)
e + CH4 => e + CH4(v13)		! f1 * Bolsig+ CH4 -> CH4(v13)
e + C2H6 => e + C2H6(v24)		! f2 * Bolsig+ C2H6 -> C2H6(v24)
e + C2H6 => e + C2H6(v13)		! f3 * Bolsig+ C2H6 -> C2H6(v13)
e + C2H4 => e + C2H4(v1)		! f4 * Bolsig+ C2H4 -> C2H4(v1)
e + C2H4 => e + C2H4(v2)		! f5 * Bolsig+ C2H4 -> C2H4(v2)
e + C2H2 => e + C2H2(v5)		! f6 * Bolsig+ C2H2 -> C2H2(v5)
e + C2H2 => e + C2H2(v2)		! f7 * Bolsig+ C2H2 -> C2H2(v2)
e + C2H2 => e + C2H2(v13)		! f8 * Bolsig+ C2H2 -> C2H2(v13)
e + C3H8 => e + C3H8(v1)		! f9 * Bolsig+ C3H8 -> C3H8(v1)
e + C3H8 => e + C3H8(v2)		! f10 * Bolsig+ C3H8 -> C3H8(v2)
e + C3H6 => e + C3H6(v)		! f11 * Bolsig+ C3H6 -> C3H6(v)
e + CH4 => e + CH3 + H		! f12 * Bolsig+ CH4 -> CH3 H
e + CH4(v24) => e + CH3 + H		! f12 * Bolsig+ CH4(v24) -> CH3 H
e + CH4(v13) => e + CH3 + H		! f12 * Bolsig+ CH4(v13) -> CH3 H
e + CH4 => e + CH2 + H2		! f13 * Bolsig+ CH4 -> CH2 H2
e + CH4(v24) => e + CH2 + H2		! f13 * Bolsig+ CH4(v24) -> CH2 H2
e + CH4(v13) => e + CH2 + H2		! f13 * Bolsig+ CH4(v13) -> CH2 H2
e + CH4 => e + CH + H2 + H		! f14 * Bolsig+ CH4 -> CH H2 H
e + CH4(v24) => e + CH + H2 + H		! f14 * Bolsig+ CH4(v24) -> CH H2 H
e + CH4(v13) => e + CH + H2 + H		! f14 * Bolsig+ CH4(v13) -> CH H2 H
e + CH4 => e + C + H2 + H2		! f15 * Bolsig+ CH4 -> C H2 H2
e + CH4(v24) => e + C + H2 + H2		! f15 * Bolsig+ CH4(v24) -> C H2 H2
e + CH4(v13) => e + C + H2 + H2		! f15 * Bolsig+ CH4(v13) -> C H2 H2
e + CH3 => e + CH2 + H		! f16 * Bolsig+ CH3 -> CH2 H
e + CH3 => e + CH + H2		! f17 * Bolsig+ CH3 -> CH H2
e + CH3 => e + C + H2 + H		! f18 * Bolsig+ CH3 -> C H2 H
e + CH2 => e + CH + H		! f19 * Bolsig+ CH2 -> CH H
e + CH2 => e + C + H2		! f20 * Bolsig+ CH2 -> C H2
e + CH2 => e + C + H + H		! f21 * Bolsig+ CH2 -> C H H
e + CH => e + C + H		! f22 * Bolsig+ CH -> C H
e + CH4 => e + e + CH4^+		! f23 * Bolsig+ CH4 -> CH4^+
e + CH4(v24) => e + e + CH4^+		! f23 * Bolsig+ CH4(v24) -> CH4^+
e + CH4(v13) => e + e + CH4^+		! f23 * Bolsig+ CH4(v13) -> CH4^+
e + CH4 => e + e + H + CH3^+		! f24 * Bolsig+ CH4 -> H CH3^+
e + CH4(v24) => e + e + H + CH3^+		! f24 * Bolsig+ CH4(v24) -> H CH3^+
e + CH4(v13) => e + e + H + CH3^+		! f24 * Bolsig+ CH4(v13) -> H CH3^+
e + CH4 => e + e + H2 + CH2^+		! f25 * Bolsig+ CH4 -> H2 CH2^+
e + CH4(v24) => e + e + H2 + CH2^+		! f25 * Bolsig+ CH4(v24) -> H2 CH2^+
e + CH4(v13) => e + e + H2 + CH2^+		! f25 * Bolsig+ CH4(v13) -> H2 CH2^+
e + CH4 => e + e + H2 + H + CH^+		! f26 * Bolsig+ CH4 -> H2 H CH^+
e + CH4(v24) => e + e + H2 + H + CH^+		! f26 * Bolsig+ CH4(v24) -> H2 H CH^+
e + CH4(v13) => e + e + H2 + H + CH^+		! f26 * Bolsig+ CH4(v13) -> H2 H CH^+
e + CH3 => e + e + CH3^+		! f27 * Bolsig+ CH3 -> CH3^+
e + CH3 => e + e + H + CH2^+		! f28 * Bolsig+ CH3 -> H CH2^+
e + CH3 => e + e + H2 + CH^+		! f29 * Bolsig+ CH3 -> H2 CH^+
e + CH2 => e + e + CH2^+		! f30 * Bolsig+ CH2 -> CH2^+
e + CH2 => e + e + H + CH^+		! f31 * Bolsig+ CH2 -> H CH^+
e + CH => e + e + CH^+		! f32 * Bolsig+ CH -> CH^+
e + C2H6 => e + C2H5 + H		! f33 * Bolsig+ C2H6 -> C2H5 H
e + C2H6(v24) => e + C2H5 + H		! f33 * Bolsig+ C2H6(v24) -> C2H5 H
e + C2H6(v13) => e + C2H5 + H		! f33 * Bolsig+ C2H6(v13) -> C2H5 H
e + C2H6 => e + C2H4 + H2		! f34 * Bolsig+ C2H6 -> C2H4 H2
e + C2H6(v24) => e + C2H4 + H2		! f34 * Bolsig+ C2H6(v24) -> C2H4 H2
e + C2H6(v13) => e + C2H4 + H2		! f34 * Bolsig+ C2H6(v13) -> C2H4 H2
e + C2H6 => e + C2H3 + H2 + H		! f35 * Bolsig+ C2H6 -> C2H3 H2 H
e + C2H6(v24) => e + C2H3 + H2 + H		! f35 * Bolsig+ C2H6(v24) -> C2H3 H2 H
e + C2H6(v13) => e + C2H3 + H2 + H		! f35 * Bolsig+ C2H6(v13) -> C2H3 H2 H
e + C2H6 => e + C2H2 + H2 + H2		! f36 * Bolsig+ C2H6 -> C2H2 H2 H2
e + C2H6(v24) => e + C2H2 + H2 + H2		! f36 * Bolsig+ C2H6(v24) -> C2H2 H2 H2
e + C2H6(v13) => e + C2H2 + H2 + H2		! f36 * Bolsig+ C2H6(v13) -> C2H2 H2 H2
e + C2H6 => e + CH4 + CH2		! f37 * Bolsig+ C2H6 -> CH4 CH2
e + C2H6(v24) => e + CH4 + CH2		! f37 * Bolsig+ C2H6(v24) -> CH4 CH2
e + C2H6(v13) => e + CH4 + CH2		! f37 * Bolsig+ C2H6(v13) -> CH4 CH2
e + C2H6 => e + CH3 + CH3		! f38 * Bolsig+ C2H6 -> CH3 CH3
e + C2H6(v24) => e + CH3 + CH3		! f38 * Bolsig+ C2H6(v24) -> CH3 CH3
e + C2H6(v13) => e + CH3 + CH3		! f38 * Bolsig+ C2H6(v13) -> CH3 CH3
e + C2H5 => e + C2H4 + H		! f39 * Bolsig+ C2H5 -> C2H4 H
e + C2H5 => e + C2H3 + H2		! f40 * Bolsig+ C2H5 -> C2H3 H2
e + C2H5 => e + C2H3 + H + H		! f41 * Bolsig+ C2H5 -> C2H3 H H
e + C2H5 => e + C2H2 + H2 + H		! f42 * Bolsig+ C2H5 -> C2H2 H2 H
e + C2H5 => e + CH4 + CH		! f43 * Bolsig+ C2H5 -> CH4 CH
e + C2H5 => e + CH3 + CH2		! f44 * Bolsig+ C2H5 -> CH3 CH2
e + C2H4 => e + C2H3 + H		! f45 * Bolsig+ C2H4 -> C2H3 H
e + C2H4(v1) => e + C2H3 + H		! f45 * Bolsig+ C2H4(v1) -> C2H3 H
e + C2H4(v2) => e + C2H3 + H		! f45 * Bolsig+ C2H4(v2) -> C2H3 H
e + C2H4 => e + C2H2 + H2		! f46 * Bolsig+ C2H4 -> C2H2 H2
e + C2H4(v1) => e + C2H2 + H2		! f46 * Bolsig+ C2H4(v1) -> C2H2 H2
e + C2H4(v2) => e + C2H2 + H2		! f46 * Bolsig+ C2H4(v2) -> C2H2 H2
e + C2H4 => e + C2H2 + H + H		! f47 * Bolsig+ C2H4 -> C2H2 H H
e + C2H4(v1) => e + C2H2 + H + H		! f47 * Bolsig+ C2H4(v1) -> C2H2 H H
e + C2H4(v2) => e + C2H2 + H + H		! f47 * Bolsig+ C2H4(v2) -> C2H2 H H
e + C2H4 => e + CH3 + CH		! f48 * Bolsig+ C2H4 -> CH3 CH
e + C2H4(v1) => e + CH3 + CH		! f48 * Bolsig+ C2H4(v1) -> CH3 CH
e + C2H4(v2) => e + CH3 + CH		! f48 * Bolsig+ C2H4(v2) -> CH3 CH
e + C2H4 => e + CH2 + CH2		! f49 * Bolsig+ C2H4 -> CH2 CH2
e + C2H4(v1) => e + CH2 + CH2		! f49 * Bolsig+ C2H4(v1) -> CH2 CH2
e + C2H4(v2) => e + CH2 + CH2		! f49 * Bolsig+ C2H4(v2) -> CH2 CH2
e + C2H3 => e + C2H2 + H		! f50 * Bolsig+ C2H3 -> C2H2 H
e + C2H3 => e + CH2 + CH		! f51 * Bolsig+ C2H3 -> CH2 CH
e + C2H2 => e + CH + CH		! f52 * Bolsig+ C2H2 -> CH CH
e + C2H2(v5) => e + CH + CH		! f52 * Bolsig+ C2H2(v5) -> CH CH
e + C2H2(v2) => e + CH + CH		! f52 * Bolsig+ C2H2(v2) -> CH CH
e + C2H2(v13) => e + CH + CH		! f52 * Bolsig+ C2H2(v13) -> CH CH
e + C2H6 => e + e + C2H6^+		! f53 * Bolsig+ C2H6 -> C2H6^+
e + C2H6(v24) => e + e + C2H6^+		! f53 * Bolsig+ C2H6(v24) -> C2H6^+
e + C2H6(v13) => e + e + C2H6^+		! f53 * Bolsig+ C2H6(v13) -> C2H6^+
e + C2H6 => e + e + H + C2H5^+		! f54 * Bolsig+ C2H6 -> H C2H5^+
e + C2H6(v24) => e + e + H + C2H5^+		! f54 * Bolsig+ C2H6(v24) -> H C2H5^+
e + C2H6(v13) => e + e + H + C2H5^+		! f54 * Bolsig+ C2H6(v13) -> H C2H5^+
e + C2H6 => e + e + H2 + C2H4^+		! f55 * Bolsig+ C2H6 -> H2 C2H4^+
e + C2H6(v24) => e + e + H2 + C2H4^+		! f55 * Bolsig+ C2H6(v24) -> H2 C2H4^+
e + C2H6(v13) => e + e + H2 + C2H4^+		! f55 * Bolsig+ C2H6(v13) -> H2 C2H4^+
e + C2H6 => e + e + H2 + H + C2H3^+		! f56 * Bolsig+ C2H6 -> H2 H C2H3^+
e + C2H6(v24) => e + e + H2 + H + C2H3^+		! f56 * Bolsig+ C2H6(v24) -> H2 H C2H3^+
e + C2H6(v13) => e + e + H2 + H + C2H3^+		! f56 * Bolsig+ C2H6(v13) -> H2 H C2H3^+
e + C2H6 => e + e + H2 + H2 + C2H2^+		! f57 * Bolsig+ C2H6 -> H2 H2 C2H2^+
e + C2H6(v24) => e + e + H2 + H2 + C2H2^+		! f57 * Bolsig+ C2H6(v24) -> H2 H2 C2H2^+
e + C2H6(v13) => e + e + H2 + H2 + C2H2^+		! f57 * Bolsig+ C2H6(v13) -> H2 H2 C2H2^+
e + C2H6 => e + e + CH3 + CH3^+		! f58 * Bolsig+ C2H6 -> CH3 CH3^+
e + C2H6(v24) => e + e + CH3 + CH3^+		! f58 * Bolsig+ C2H6(v24) -> CH3 CH3^+
e + C2H6(v13) => e + e + CH3 + CH3^+		! f58 * Bolsig+ C2H6(v13) -> CH3 CH3^+
e + C2H6 => e + e + CH4 + CH2^+		! f59 * Bolsig+ C2H6 -> CH4 CH2^+
e + C2H6(v24) => e + e + CH4 + CH2^+		! f59 * Bolsig+ C2H6(v24) -> CH4 CH2^+
e + C2H6(v13) => e + e + CH4 + CH2^+		! f59 * Bolsig+ C2H6(v13) -> CH4 CH2^+
e + C2H5 => e + e + C2H5^+		! f60 * Bolsig+ C2H5 -> C2H5^+
e + C2H5 => e + e + H + C2H4^+		! f61 * Bolsig+ C2H5 -> H C2H4^+
e + C2H5 => e + e + H2 + C2H3^+		! f62 * Bolsig+ C2H5 -> H2 C2H3^+
e + C2H5 => e + e + H2 + H + C2H2^+		! f63 * Bolsig+ C2H5 -> H2 H C2H2^+
e + C2H5 => e + e + CH2 + CH3^+		! f64 * Bolsig+ C2H5 -> CH2 CH3^+
e + C2H5 => e + e + CH3 + CH2^+		! f65 * Bolsig+ C2H5 -> CH3 CH2^+
e + C2H5 => e + e + CH4 + CH^+		! f66 * Bolsig+ C2H5 -> CH4 CH^+
e + C2H4 => e + e + C2H4^+		! f67 * Bolsig+ C2H4 -> C2H4^+
e + C2H4(v1) => e + e + C2H4^+		! f67 * Bolsig+ C2H4(v1) -> C2H4^+
e + C2H4(v2) => e + e + C2H4^+		! f67 * Bolsig+ C2H4(v2) -> C2H4^+
e + C2H4 => e + e + H + C2H3^+		! f68 * Bolsig+ C2H4 -> H C2H3^+
e + C2H4(v1) => e + e + H + C2H3^+		! f68 * Bolsig+ C2H4(v1) -> H C2H3^+
e + C2H4(v2) => e + e + H + C2H3^+		! f68 * Bolsig+ C2H4(v2) -> H C2H3^+
e + C2H4 => e + e + CH + CH3^+		! f69 * Bolsig+ C2H4 -> CH CH3^+
e + C2H4(v1) => e + e + CH + CH3^+		! f69 * Bolsig+ C2H4(v1) -> CH CH3^+
e + C2H4(v2) => e + e + CH + CH3^+		! f69 * Bolsig+ C2H4(v2) -> CH CH3^+
e + C2H4 => e + e + CH2 + CH2^+		! f70 * Bolsig+ C2H4 -> CH2 CH2^+
e + C2H4(v1) => e + e + CH2 + CH2^+		! f70 * Bolsig+ C2H4(v1) -> CH2 CH2^+
e + C2H4(v2) => e + e + CH2 + CH2^+		! f70 * Bolsig+ C2H4(v2) -> CH2 CH2^+
e + C2H4 => e + e + CH3 + CH^+		! f71 * Bolsig+ C2H4 -> CH3 CH^+
e + C2H4(v1) => e + e + CH3 + CH^+		! f71 * Bolsig+ C2H4(v1) -> CH3 CH^+
e + C2H4(v2) => e + e + CH3 + CH^+		! f71 * Bolsig+ C2H4(v2) -> CH3 CH^+
e + C2H3 => e + e + C2H3^+		! f72 * Bolsig+ C2H3 -> C2H3^+
e + C2H3 => e + e + H + C2H2^+		! f73 * Bolsig+ C2H3 -> H C2H2^+
e + C2H3 => e + e + CH + CH2^+		! f74 * Bolsig+ C2H3 -> CH CH2^+
e + C2H3 => e + e + CH2 + CH^+		! f75 * Bolsig+ C2H3 -> CH2 CH^+
e + C2H3 => e + e + C2H2 + H^+		! f76 * Bolsig+ C2H3 -> C2H2 H^+
e + C2H2 => e + e + C2H2^+		! f77 * Bolsig+ C2H2 -> C2H2^+
e + C2H2(v5) => e + e + C2H2^+		! f77 * Bolsig+ C2H2(v5) -> C2H2^+
e + C2H2(v2) => e + e + C2H2^+		! f77 * Bolsig+ C2H2(v2) -> C2H2^+
e + C2H2(v13) => e + e + C2H2^+		! f77 * Bolsig+ C2H2(v13) -> C2H2^+
e + C2H2 => e + e + CH + CH^+		! f78 * Bolsig+ C2H2 -> CH CH^+
e + C2H2(v5) => e + e + CH + CH^+		! f78 * Bolsig+ C2H2(v5) -> CH CH^+
e + C2H2(v2) => e + e + CH + CH^+		! f78 * Bolsig+ C2H2(v2) -> CH CH^+
e + C2H2(v13) => e + e + CH + CH^+		! f78 * Bolsig+ C2H2(v13) -> CH CH^+
e + C3H8 => e + C3H7 + H		! f79 * Bolsig+ C3H8 -> C3H7 H
e + C3H8(v1) => e + C3H7 + H		! f79 * Bolsig+ C3H8(v1) -> C3H7 H
e + C3H8(v2) => e + C3H7 + H		! f79 * Bolsig+ C3H8(v2) -> C3H7 H
e + C3H8 => e + C3H6 + H2		! f80 * Bolsig+ C3H8 -> C3H6 H2
e + C3H8(v1) => e + C3H6 + H2		! f80 * Bolsig+ C3H8(v1) -> C3H6 H2
e + C3H8(v2) => e + C3H6 + H2		! f80 * Bolsig+ C3H8(v2) -> C3H6 H2
e + C3H7 => e + C3H6 + H		! f81 * Bolsig+ C3H7 -> C3H6 H
e + C3H8 => e + e + C3H8^+		! f82 * Bolsig+ C3H8 -> C3H8^+
e + C3H8(v1) => e + e + C3H8^+		! f82 * Bolsig+ C3H8(v1) -> C3H8^+
e + C3H8(v2) => e + e + C3H8^+		! f82 * Bolsig+ C3H8(v2) -> C3H8^+
e + C3H8 => e + e + H + C3H7^+		! f83 * Bolsig+ C3H8 -> H C3H7^+
e + C3H8(v1) => e + e + H + C3H7^+		! f83 * Bolsig+ C3H8(v1) -> H C3H7^+
e + C3H8(v2) => e + e + H + C3H7^+		! f83 * Bolsig+ C3H8(v2) -> H C3H7^+
e + C3H8 => e + e + H2 + C3H6^+		! f84 * Bolsig+ C3H8 -> H2 C3H6^+
e + C3H8(v1) => e + e + H2 + C3H6^+		! f84 * Bolsig+ C3H8(v1) -> H2 C3H6^+
e + C3H8(v2) => e + e + H2 + C3H6^+		! f84 * Bolsig+ C3H8(v2) -> H2 C3H6^+
e + C3H7 => e + e + C3H7^+		! f85 * Bolsig+ C3H7 -> C3H7^+
e + C3H7 => e + e + H + C3H6^+		! f86 * Bolsig+ C3H7 -> H C3H6^+
e + C3H6 => e + e + C3H6^+		! f87 * Bolsig+ C3H6 -> C3H6^+
e + C3H6(v) => e + e + C3H6^+		! f87 * Bolsig+ C3H6(v) -> C3H6^+
e + C3H6 => e + C2H2 + CH4		! f88 * Bolsig+ C3H6 -> C2H2 CH4
e + C3H6(v) => e + C2H2 + CH4		! f88 * Bolsig+ C3H6(v) -> C2H2 CH4
e + C3H6 => e + e + C2H2 + CH4^+		! f89 * Bolsig+ C3H6 -> C2H2 CH4^+
e + C3H6(v) => e + e + C2H2 + CH4^+		! f89 * Bolsig+ C3H6(v) -> C2H2 CH4^+

# Ion Recombination Reaction
e + e + CH^+ => e + CH		! f90 * 1.00d0
e + e + CH2^+ => e + CH2		! f91 * 1.00d0
e + e + CH3^+ => e + CH3		! f92 * 1.00d0
e + e + CH4^+ => e + CH4		! f93 * 1.00d0
e + e + C2H2^+ => e + C2H2		! f94 * 1.00d0
e + e + C2H3^+ => e + C2H3		! f95 * 1.00d0
e + e + C2H4^+ => e + C2H4		! f96 * 1.00d0
e + e + C2H5^+ => e + C2H5		! f97 * 1.00d0
e + e + C2H6^+ => e + C2H6		! f98 * 1.00d0
e + e + C3H6^+ => e + C3H6		! f99 * 1.00d0
e + e + C3H7^+ => e + C3H7		! f100 * 1.00d0
e + e + C3H8^+ => e + C3H8		! f101 * 1.00d0

# Gas Phase Reaction
e + CH4^+ => CH3 + H		! f102 * 1.18d-08 * (300./Tgas)**0.5
e + CH4^+ => CH2 + H + H		! f103 * 2.42d-08 * (300./Tgas)**0.5
e + CH4^+ => CH + H2 + H		! f104 * 1.41d-08 * (300./Tgas)**0.5
e + CH3^+ => CH2 + H		! f105 * 2.25d-08 * (300./Tgas)**0.5
e + CH3^+ => CH + H2		! f106 * 7.88d-09 * (300./Tgas)**0.5
e + CH3^+ => CH + H + H		! f107 * 9.00d-09 * (300./Tgas)**0.5
e + CH3^+ => C + H2 + H		! f108 * 1.69d-08 * (300./Tgas)**0.5
e + CH2^+ => CH + H		! f109 * 1.00d-08 * (300./Tgas)**0.5
e + CH2^+ => C + H2		! f110 * 4.82d-09 * (300./Tgas)**0.5
e + CH2^+ => C + H + H		! f111 * 2.53d-08 * (300./Tgas)**0.5
e + CH^+ => C + H		! f112 * 3.23d-08 * (300./Tgas)**0.42
e + C2H6^+ => C2H5 + H		! f113 * 2.19d-08 * (300./Tgas)**0.71
e + C2H6^+ => C2H4 + H + H		! f114 * 3.36d-08 * (300./Tgas)**0.71
e + C2H5^+ => C2H4 + H		! f115 * 7.70d-09 * (300./Tgas)**0.71
e + C2H5^+ => C2H3 + H + H		! f116 * 1.92d-08 * (300./Tgas)**0.71
e + C2H5^+ => C2H2 + H2 + H		! f117 * 1.60d-08 * (300./Tgas)**0.71
e + C2H5^+ => C2H2 + H + H + H		! f118 * 8.98d-09 * (300./Tgas)**0.71
e + C2H5^+ => CH3 + CH2		! f119 * 9.62d-09 * (300./Tgas)**0.71
e + C2H4^+ => C2H3 + H		! f120 * 8.29d-09 * (300./Tgas)**0.71
e + C2H4^+ => C2H2 + H + H		! f121 * 3.43d-08 * (300./Tgas)**0.71
e + C2H3^+ => C2H2 + H		! f122 * 1.34d-08 * (300./Tgas)**0.71
e + C2H2^+ => CH + CH		! f123 * 4.87d-09 * (300./Tgas)**0.71
e + H2^+ => H + H		! f124 * 3.17d21/(6.022d23 * Te**4.5)
e + H3^+ => H + H2		! f125 * 3.17d21/(6.022d23 * Te**4.5)
H2 + H2^+ => H + H3^+		! f126 * 2.11d-09
C2H6 + CH4^+ => CH4 + H2 + C2H4^+		! f127 * 1.91d-9
C2H6(v24) + CH4^+ => CH4 + H2 + C2H4^+		! f127 * 1.91d-9
C2H6(v13) + CH4^+ => CH4 + H2 + C2H4^+		! f127 * 1.91d-9
C2H4 + CH4^+ => CH3 + C2H5^+		! f128 * 4.23d-10