ELEMENTS
e C H
END

SPECIES
e C CH CH^+ CH2 CH2^+ CH3 CH3^+ CH4 CH4(v13) CH4(v24) CH4^+ C2H2 C2H2(v13) C2H2(v2) C2H2(v5) C2H2^+ C2H3 C2H3^+ C2H4 C2H4(v1) C2H4(v2) C2H4^+ C2H5 C2H5^+
C2H6 C2H6(v13) C2H6(v24) C2H6^+ C3H5 C3H6 C3H6(v) C3H6^+ C3H7 C3H7^+ C3H8 C3H8(v1) C3H8(v2) C3H8^+ C4H9 C4H9H C2H C5H12 H H2 H2^+ H3^+ H^+
END

BOLSIG
CH CH2 CH3 CH4 CH4(v13) CH4(v24) C2H2 C2H2(v13) C2H2(v2) C2H2(v5) C2H3 C2H4 C2H4(v1) C2H4(v2) C2H5 C2H6 C2H6(v13) C2H6(v24) C3H6 C3H6(v) C3H7 C3H8 C3H8(v1) C3H8(v2)
END

REACTIONS
# Gas Constant
$ double precision, parameter :: R = 8.314d-3

# Compensation Parameters
$ double precision, parameter :: f0 = 8.5413d-8
$ double precision, parameter :: f1 = 4.6918d-8
$ double precision, parameter :: f2 = 2.1355d-5
$ double precision, parameter :: f3 = 2.3735d-8
$ double precision, parameter :: f4 = 2.5568d-1
$ double precision, parameter :: f5 = 1.7686d-1
$ double precision, parameter :: f6 = 6.3811d0
$ double precision, parameter :: f7 = 1.0704d-5
$ double precision, parameter :: f8 = 7.6816d-1
$ double precision, parameter :: f9 = 2.3068d+2
$ double precision, parameter :: f10 = 2.3511d0
$ double precision, parameter :: f11 = 3.2525d+1
$ double precision, parameter :: f12 = 1.7324d-5
$ double precision, parameter :: f13 = 2.9029d-3
$ double precision, parameter :: f14 = 1.0685d-7
$ double precision, parameter :: f15 = 3.2948d+1
$ double precision, parameter :: f16 = 6.1402d-6
$ double precision, parameter :: f17 = 9.0618d0
$ double precision, parameter :: f18 = 1.4587d+1
$ double precision, parameter :: f19 = 6.2130d-4
$ double precision, parameter :: f20 = 2.1602d-2
$ double precision, parameter :: f21 = 1.1287d-7
$ double precision, parameter :: f22 = 4.1979d-4
$ double precision, parameter :: f23 = 7.3485d-7
$ double precision, parameter :: f24 = 2.1484d-4
$ double precision, parameter :: f25 = 4.3716d0
$ double precision, parameter :: f26 = 6.7877d-8
$ double precision, parameter :: f27 = 5.6242d-5
$ double precision, parameter :: f28 = 4.9199d-5
$ double precision, parameter :: f29 = 3.6518d-6
$ double precision, parameter :: f30 = 2.0240d-1
$ double precision, parameter :: f31 = 3.0739d-5
$ double precision, parameter :: f32 = 4.0003d0
$ double precision, parameter :: f33 = 4.9639d-4
$ double precision, parameter :: f34 = 2.1960d-8
$ double precision, parameter :: f35 = 9.2563d-1
$ double precision, parameter :: f36 = 3.3920d-2
$ double precision, parameter :: f37 = 8.7711d-1
$ double precision, parameter :: f38 = 5.4262d-4
$ double precision, parameter :: f39 = 3.9475d0
$ double precision, parameter :: f40 = 2.5019d-7
$ double precision, parameter :: f41 = 6.6556d-5
$ double precision, parameter :: f42 = 1.7230d-2
$ double precision, parameter :: f43 = 1.8352d0
$ double precision, parameter :: f44 = 3.5783d-8
$ double precision, parameter :: f45 = 1.0314d+1
$ double precision, parameter :: f46 = 6.9498d-2
$ double precision, parameter :: f47 = 6.5127d0
$ double precision, parameter :: f48 = 2.6999d-5
$ double precision, parameter :: f49 = 2.1810d-7
$ double precision, parameter :: f50 = 6.5910d+2
$ double precision, parameter :: f51 = 1.3252d-3
$ double precision, parameter :: f52 = 1.1203d0
$ double precision, parameter :: f53 = 3.2840d-8
$ double precision, parameter :: f54 = 5.6641d+1
$ double precision, parameter :: f55 = 2.7465d-7
$ double precision, parameter :: f56 = 2.5524d+1
$ double precision, parameter :: f57 = 9.2256d-6
$ double precision, parameter :: f58 = 2.6745d+1
$ double precision, parameter :: f59 = 4.1530d-7
$ double precision, parameter :: f60 = 1.4976d-4
$ double precision, parameter :: f61 = 1.0378d-4
$ double precision, parameter :: f62 = 1.1991d-4
$ double precision, parameter :: f63 = 2.0809d-1
$ double precision, parameter :: f64 = 3.4383d-8
$ double precision, parameter :: f65 = 1.8489d-3
$ double precision, parameter :: f66 = 1.8627d-4
$ double precision, parameter :: f67 = 1.0852d-8
$ double precision, parameter :: f68 = 7.5890d-8
$ double precision, parameter :: f69 = 1.4939d-1
$ double precision, parameter :: f70 = 1.6327d+1
$ double precision, parameter :: f71 = 5.0249d-8
$ double precision, parameter :: f72 = 4.0382d+1
$ double precision, parameter :: f73 = 5.4412d-7
$ double precision, parameter :: f74 = 6.1351d-5
$ double precision, parameter :: f75 = 4.0949d-1
$ double precision, parameter :: f76 = 1.4011d-2
$ double precision, parameter :: f77 = 1.3171d+2
$ double precision, parameter :: f78 = 2.0220d+1
$ double precision, parameter :: f79 = 1.2823d0
$ double precision, parameter :: f80 = 7.3522d-7
$ double precision, parameter :: f81 = 1.5301d-8
$ double precision, parameter :: f82 = 3.4345d-8
$ double precision, parameter :: f83 = 2.5771d-5
$ double precision, parameter :: f84 = 9.6997d-2
$ double precision, parameter :: f85 = 1.6986d-3
$ double precision, parameter :: f86 = 1.6464d-7
$ double precision, parameter :: f87 = 1.9641d-4
$ double precision, parameter :: f88 = 7.5780d-8
$ double precision, parameter :: f89 = 3.4296d-5
$ double precision, parameter :: f90 = 1.0901d-3
$ double precision, parameter :: f91 = 4.5104d-4
$ double precision, parameter :: f92 = 1.8487d+1
$ double precision, parameter :: f93 = 9.0240d-6
$ double precision, parameter :: f94 = 5.1323d-7
$ double precision, parameter :: f95 = 5.7791d-2
$ double precision, parameter :: f96 = 1.1114d-4
$ double precision, parameter :: f97 = 2.9391d+1
$ double precision, parameter :: f98 = 9.0278d-2
$ double precision, parameter :: f99 = 9.3854d+1
$ double precision, parameter :: f100 = 3.7849d-1
$ double precision, parameter :: f101 = 3.8709d-4
$ double precision, parameter :: f102 = 8.2512d-1
$ double precision, parameter :: f103 = 4.1143d-1
$ double precision, parameter :: f104 = 2.9912d-4
$ double precision, parameter :: f105 = 3.6075d-1
$ double precision, parameter :: f106 = 3.1647d-5
$ double precision, parameter :: f107 = 3.6052d+1
$ double precision, parameter :: f108 = 1.9021d0
$ double precision, parameter :: f109 = 8.6451d-1
$ double precision, parameter :: f110 = 3.4176d-6
$ double precision, parameter :: f111 = 2.9614d-6
$ double precision, parameter :: f112 = 2.5683d-2
$ double precision, parameter :: f113 = 1.8224d+1
$ double precision, parameter :: f114 = 3.9007d-7
$ double precision, parameter :: f115 = 1.3845d-7
$ double precision, parameter :: f116 = 6.0828d-3
$ double precision, parameter :: f117 = 8.1418d+2
$ double precision, parameter :: f118 = 1.6647d-7
$ double precision, parameter :: f119 = 1.5631d-4
$ double precision, parameter :: f120 = 3.2248d0
$ double precision, parameter :: f121 = 1.4820d-6
$ double precision, parameter :: f122 = 3.2215d-8
$ double precision, parameter :: f123 = 1.6647d-6
$ double precision, parameter :: f124 = 1.5672d+2
$ double precision, parameter :: f125 = 5.4096d-8
$ double precision, parameter :: f126 = 3.7117d+1
$ double precision, parameter :: f127 = 5.0807d-6
$ double precision, parameter :: f128 = 9.7529d-3
$ double precision, parameter :: f129 = 1.0838d-8
$ double precision, parameter :: f130 = 2.4527d-7
$ double precision, parameter :: f131 = 9.9660d-6
$ double precision, parameter :: f132 = 2.9846d-6
$ double precision, parameter :: f133 = 1.6310d-7
$ double precision, parameter :: f134 = 3.5407d+2
$ double precision, parameter :: f135 = 2.1357d-2
$ double precision, parameter :: f136 = 1.6556d+1
$ double precision, parameter :: f137 = 2.3338d-6
$ double precision, parameter :: f138 = 9.2834d-6
$ double precision, parameter :: f139 = 9.6893d-3
$ double precision, parameter :: f140 = 1.8610d+2
$ double precision, parameter :: f141 = 8.7502d-4
$ double precision, parameter :: f142 = 8.2938d-6
$ double precision, parameter :: f143 = 4.8379d0
$ double precision, parameter :: f144 = 2.2658d-2
$ double precision, parameter :: f145 = 2.2792d-5
$ double precision, parameter :: f146 = 2.1673d+2
$ double precision, parameter :: f147 = 3.3488d-1
$ double precision, parameter :: f148 = 1.1514d-7
$ double precision, parameter :: f149 = 1.6535d-4
$ double precision, parameter :: f150 = 9.1851d-2
$ double precision, parameter :: f151 = 2.8840d-5
$ double precision, parameter :: f152 = 2.0306d+2
$ double precision, parameter :: f153 = 7.6499d-1
$ double precision, parameter :: f154 = 1.9307d-7
$ double precision, parameter :: f155 = 2.8480d+1
$ double precision, parameter :: f156 = 2.7518d-7
$ double precision, parameter :: f157 = 2.4312d-2
$ double precision, parameter :: f158 = 6.6604d-2
$ double precision, parameter :: f159 = 6.5846d0
$ double precision, parameter :: f160 = 1.4001d-5
$ double precision, parameter :: f161 = 4.4751d-4
$ double precision, parameter :: f162 = 1.4888d-6
$ double precision, parameter :: f163 = 1.1761d-2
$ double precision, parameter :: f164 = 1.0442d+2
$ double precision, parameter :: f165 = 1.2715d-8
$ double precision, parameter :: f166 = 1.6924d-5
$ double precision, parameter :: f167 = 2.5336d-5
$ double precision, parameter :: f168 = 2.8214d+2
$ double precision, parameter :: f169 = 2.6943d0
$ double precision, parameter :: f170 = 2.4508d-2
$ double precision, parameter :: f171 = 3.4329d-4
$ double precision, parameter :: f172 = 1.8465d+1
$ double precision, parameter :: f173 = 1.6170d-5
$ double precision, parameter :: f174 = 8.3702d-1
$ double precision, parameter :: f175 = 8.2748d-5
$ double precision, parameter :: f176 = 4.7251d-5
$ double precision, parameter :: f177 = 5.4875d+1
$ double precision, parameter :: f178 = 6.6008d-8
$ double precision, parameter :: f179 = 1.0296d-6
$ double precision, parameter :: f180 = 1.8919d+2
$ double precision, parameter :: f181 = 7.9209d-4
$ double precision, parameter :: f182 = 1.0720d-2
$ double precision, parameter :: f183 = 1.0098d-5
$ double precision, parameter :: f184 = 3.8026d0
$ double precision, parameter :: f185 = 5.0216d-6
$ double precision, parameter :: f186 = 2.0830d+1
$ double precision, parameter :: f187 = 1.2559d-4
$ double precision, parameter :: f188 = 1.4427d-1
$ double precision, parameter :: f189 = 1.4427d-6
$ double precision, parameter :: f190 = 1.4326d-5
$ double precision, parameter :: f191 = 8.9375d+1
$ double precision, parameter :: f192 = 1.5404d+1
$ double precision, parameter :: f193 = 1.1164d+1
$ double precision, parameter :: f194 = 8.7431d-2
$ double precision, parameter :: f195 = 8.2297d-2
$ double precision, parameter :: f196 = 5.4136d-3
$ double precision, parameter :: f197 = 6.8470d-8
$ double precision, parameter :: f198 = 2.8503d-6
$ double precision, parameter :: f199 = 7.3131d-8
$ double precision, parameter :: f200 = 1.6309d-3
$ double precision, parameter :: f201 = 2.0741d+1
$ double precision, parameter :: f202 = 4.2743d+1
$ double precision, parameter :: f203 = 1.5168d-1
$ double precision, parameter :: f204 = 7.7872d-7
$ double precision, parameter :: f205 = 8.8668d+2
$ double precision, parameter :: f206 = 2.2206d-7
$ double precision, parameter :: f207 = 2.8214d-7
$ double precision, parameter :: f208 = 1.2279d-7
$ double precision, parameter :: f209 = 1.6930d-2
$ double precision, parameter :: f210 = 2.0669d+2
$ double precision, parameter :: f211 = 1.3903d-4
$ double precision, parameter :: f212 = 1.9621d-7
$ double precision, parameter :: f213 = 5.3698d-4
$ double precision, parameter :: f214 = 3.9898d+1
$ double precision, parameter :: f215 = 1.1943d-7
$ double precision, parameter :: f216 = 9.7101d-8
$ double precision, parameter :: f217 = 8.0733d-7
$ double precision, parameter :: f218 = 2.2724d+2
$ double precision, parameter :: f219 = 1.9294d-1
$ double precision, parameter :: f220 = 4.3987d-5
$ double precision, parameter :: f221 = 6.1816d-5
$ double precision, parameter :: f222 = 4.9651d-6
$ double precision, parameter :: f223 = 2.4976d+1
$ double precision, parameter :: f224 = 5.0913d-8
$ double precision, parameter :: f225 = 9.9865d-5
$ double precision, parameter :: f226 = 5.4071d+2
$ double precision, parameter :: f227 = 8.7269d-6
$ double precision, parameter :: f228 = 6.3426d-8
$ double precision, parameter :: f229 = 3.3704d-1
$ double precision, parameter :: f230 = 2.0947d-5
$ double precision, parameter :: f231 = 6.9639d0
$ double precision, parameter :: f232 = 2.9290d-7
$ double precision, parameter :: f233 = 5.4306d-7
$ double precision, parameter :: f234 = 1.2772d-2
$ double precision, parameter :: f235 = 4.6829d-2
$ double precision, parameter :: f236 = 3.2260d-1
$ double precision, parameter :: f237 = 4.4532d-8
$ double precision, parameter :: f238 = 4.8300d-7
$ double precision, parameter :: f239 = 1.9009d-4
$ double precision, parameter :: f240 = 8.3636d0
$ double precision, parameter :: f241 = 1.1340d+1
$ double precision, parameter :: f242 = 4.5778d-3
$ double precision, parameter :: f243 = 3.8570d+2
$ double precision, parameter :: f244 = 9.6440d0
$ double precision, parameter :: f245 = 2.6643d-4
$ double precision, parameter :: f246 = 3.8254d-4
$ double precision, parameter :: f247 = 1.6617d0
$ double precision, parameter :: f248 = 1.0572d-3
$ double precision, parameter :: f249 = 1.6838d-3
$ double precision, parameter :: f250 = 4.3688d+1
$ double precision, parameter :: f251 = 4.1039d-1
$ double precision, parameter :: f252 = 8.4415d+2
$ double precision, parameter :: f253 = 6.0101d+2
$ double precision, parameter :: f254 = 3.4272d-6
$ double precision, parameter :: f255 = 3.2129d0
$ double precision, parameter :: f256 = 3.0294d-6
$ double precision, parameter :: f257 = 1.8247d-2
$ double precision, parameter :: f258 = 1.3028d-8
$ double precision, parameter :: f259 = 7.4855d-3
$ double precision, parameter :: f260 = 7.9700d0
$ double precision, parameter :: f261 = 2.6714d-8
$ double precision, parameter :: f262 = 2.4047d-7
$ double precision, parameter :: f263 = 1.3751d0
$ double precision, parameter :: f264 = 3.3831d-5
$ double precision, parameter :: f265 = 1.7779d+1
$ double precision, parameter :: f266 = 4.1482d0
$ double precision, parameter :: f267 = 1.9546d-3
$ double precision, parameter :: f268 = 1.1740d-5
$ double precision, parameter :: f269 = 1.6611d+2
$ double precision, parameter :: f270 = 4.7901d-4
$ double precision, parameter :: f271 = 1.7467d+1
$ double precision, parameter :: f272 = 6.1956d-4
$ double precision, parameter :: f273 = 1.9930d0
$ double precision, parameter :: f274 = 9.2676d-3
$ double precision, parameter :: f275 = 1.4753d-8
$ double precision, parameter :: f276 = 8.3165d+1
$ double precision, parameter :: f277 = 2.8830d0
$ double precision, parameter :: f278 = 5.4691d-8
$ double precision, parameter :: f279 = 1.4614d+1
$ double precision, parameter :: f280 = 2.1310d0
$ double precision, parameter :: f281 = 4.4212d+2
$ double precision, parameter :: f282 = 3.5239d-6
$ double precision, parameter :: f283 = 5.4191d-5
$ double precision, parameter :: f284 = 3.7005d-2
$ double precision, parameter :: f285 = 1.8361d+2
$ double precision, parameter :: f286 = 2.8918d-8
$ double precision, parameter :: f287 = 4.7695d0
$ double precision, parameter :: f288 = 2.7178d-2
$ double precision, parameter :: f289 = 2.6619d+1
$ double precision, parameter :: f290 = 1.5734d-5
$ double precision, parameter :: f291 = 9.4594d-8
$ double precision, parameter :: f292 = 1.0146d-8
$ double precision, parameter :: f293 = 2.3326d-3
$ double precision, parameter :: f294 = 3.8618d0
$ double precision, parameter :: f295 = 3.0265d-1
$ double precision, parameter :: f296 = 2.8650d-5
$ double precision, parameter :: f297 = 2.2159d-8
$ double precision, parameter :: f298 = 3.3545d-8
$ double precision, parameter :: f299 = 1.2445d-1
$ double precision, parameter :: f300 = 3.2461d-8
$ double precision, parameter :: f301 = 8.6809d-1
$ double precision, parameter :: f302 = 1.4208d-2
$ double precision, parameter :: f303 = 1.0649d+2
$ double precision, parameter :: f304 = 4.0303d-2
$ double precision, parameter :: f305 = 1.4051d0
$ double precision, parameter :: f306 = 9.2227d-2
$ double precision, parameter :: f307 = 3.7749d+1
$ double precision, parameter :: f308 = 2.1990d-4
$ double precision, parameter :: f309 = 1.9727d-3
$ double precision, parameter :: f310 = 9.6311d-4
$ double precision, parameter :: f311 = 4.1098d-1
$ double precision, parameter :: f312 = 2.5453d-1
$ double precision, parameter :: f313 = 2.8864d0
$ double precision, parameter :: f314 = 4.0743d-2
$ double precision, parameter :: f315 = 3.7671d+2

# Electron Collision Reaction
e + CH4 => e + CH4(v24)		! f0 * Bolsig+ CH4 -> CH4(v24)
e + CH4 => e + CH4(v13)		! f1 * Bolsig+ CH4 -> CH4(v13)
e + C2H6 => e + C2H6(v24)		! f2 * Bolsig+ C2H6 -> C2H6(v24)
e + C2H6 => e + C2H6(v13)		! f3 * Bolsig+ C2H6 -> C2H6(v13)
e + C2H4 => e + C2H4(v1)		! f4 * Bolsig+ C2H4 -> C2H4(v1)
e + C2H4 => e + C2H4(v2)		! f5 * Bolsig+ C2H4 -> C2H4(v2)
e + C2H2 => e + C2H2(v5)		! f6 * Bolsig+ C2H2 -> C2H2(v5)
e + C2H2 => e + C2H2(v2)		! f7 * Bolsig+ C2H2 -> C2H2(v2)
e + C2H2 => e + C2H2(v13)		! f8 * Bolsig+ C2H2 -> C2H2(v13)
e + C3H8 => e + C3H8(v1)		! f9 * Bolsig+ C3H8 -> C3H8(v1)
e + C3H8 => e + C3H8(v2)		! f10 * Bolsig+ C3H8 -> C3H8(v2)
e + C3H6 => e + C3H6(v)		! f11 * Bolsig+ C3H6 -> C3H6(v)
e + CH4 => e + CH3 + H		! f12 * Bolsig+ CH4 -> CH3 H
e + CH4(v24) => e + CH3 + H		! f12 * Bolsig+ CH4(v24) -> CH3 H
e + CH4(v13) => e + CH3 + H		! f12 * Bolsig+ CH4(v13) -> CH3 H
e + CH4 => e + CH2 + H2		! f13 * Bolsig+ CH4 -> CH2 H2
e + CH4(v24) => e + CH2 + H2		! f13 * Bolsig+ CH4(v24) -> CH2 H2
e + CH4(v13) => e + CH2 + H2		! f13 * Bolsig+ CH4(v13) -> CH2 H2
e + CH4 => e + CH + H2 + H		! f14 * Bolsig+ CH4 -> CH H2 H
e + CH4(v24) => e + CH + H2 + H		! f14 * Bolsig+ CH4(v24) -> CH H2 H
e + CH4(v13) => e + CH + H2 + H		! f14 * Bolsig+ CH4(v13) -> CH H2 H
e + CH4 => e + C + H2 + H2		! f15 * Bolsig+ CH4 -> C H2 H2
e + CH4(v24) => e + C + H2 + H2		! f15 * Bolsig+ CH4(v24) -> C H2 H2
e + CH4(v13) => e + C + H2 + H2		! f15 * Bolsig+ CH4(v13) -> C H2 H2
e + CH3 => e + CH2 + H		! f16 * Bolsig+ CH3 -> CH2 H
e + CH3 => e + CH + H2		! f17 * Bolsig+ CH3 -> CH H2
e + CH3 => e + C + H2 + H		! f18 * Bolsig+ CH3 -> C H2 H
e + CH2 => e + CH + H		! f19 * Bolsig+ CH2 -> CH H
e + CH2 => e + C + H2		! f20 * Bolsig+ CH2 -> C H2
e + CH2 => e + C + H + H		! f21 * Bolsig+ CH2 -> C H H
e + CH => e + C + H		! f22 * Bolsig+ CH -> C H
e + CH4 => e + e + CH4^+		! f23 * Bolsig+ CH4 -> CH4^+
e + CH4(v24) => e + e + CH4^+		! f23 * Bolsig+ CH4(v24) -> CH4^+
e + CH4(v13) => e + e + CH4^+		! f23 * Bolsig+ CH4(v13) -> CH4^+
e + CH4 => e + e + H + CH3^+		! f24 * Bolsig+ CH4 -> H CH3^+
e + CH4(v24) => e + e + H + CH3^+		! f24 * Bolsig+ CH4(v24) -> H CH3^+
e + CH4(v13) => e + e + H + CH3^+		! f24 * Bolsig+ CH4(v13) -> H CH3^+
e + CH4 => e + e + H2 + CH2^+		! f25 * Bolsig+ CH4 -> H2 CH2^+
e + CH4(v24) => e + e + H2 + CH2^+		! f25 * Bolsig+ CH4(v24) -> H2 CH2^+
e + CH4(v13) => e + e + H2 + CH2^+		! f25 * Bolsig+ CH4(v13) -> H2 CH2^+
e + CH4 => e + e + H2 + H + CH^+		! f26 * Bolsig+ CH4 -> H2 H CH^+
e + CH4(v24) => e + e + H2 + H + CH^+		! f26 * Bolsig+ CH4(v24) -> H2 H CH^+
e + CH4(v13) => e + e + H2 + H + CH^+		! f26 * Bolsig+ CH4(v13) -> H2 H CH^+
e + CH3 => e + e + CH3^+		! f27 * Bolsig+ CH3 -> CH3^+
e + CH3 => e + e + H + CH2^+		! f28 * Bolsig+ CH3 -> H CH2^+
e + CH3 => e + e + H2 + CH^+		! f29 * Bolsig+ CH3 -> H2 CH^+
e + CH2 => e + e + CH2^+		! f30 * Bolsig+ CH2 -> CH2^+
e + CH2 => e + e + H + CH^+		! f31 * Bolsig+ CH2 -> H CH^+
e + CH => e + e + CH^+		! f32 * Bolsig+ CH -> CH^+
e + C2H6 => e + C2H5 + H		! f33 * Bolsig+ C2H6 -> C2H5 H
e + C2H6(v24) => e + C2H5 + H		! f33 * Bolsig+ C2H6(v24) -> C2H5 H
e + C2H6(v13) => e + C2H5 + H		! f33 * Bolsig+ C2H6(v13) -> C2H5 H
e + C2H6 => e + C2H4 + H2		! f34 * Bolsig+ C2H6 -> C2H4 H2
e + C2H6(v24) => e + C2H4 + H2		! f34 * Bolsig+ C2H6(v24) -> C2H4 H2
e + C2H6(v13) => e + C2H4 + H2		! f34 * Bolsig+ C2H6(v13) -> C2H4 H2
e + C2H6 => e + C2H3 + H2 + H		! f35 * Bolsig+ C2H6 -> C2H3 H2 H
e + C2H6(v24) => e + C2H3 + H2 + H		! f35 * Bolsig+ C2H6(v24) -> C2H3 H2 H
e + C2H6(v13) => e + C2H3 + H2 + H		! f35 * Bolsig+ C2H6(v13) -> C2H3 H2 H
e + C2H6 => e + C2H2 + H2 + H2		! f36 * Bolsig+ C2H6 -> C2H2 H2 H2
e + C2H6(v24) => e + C2H2 + H2 + H2		! f36 * Bolsig+ C2H6(v24) -> C2H2 H2 H2
e + C2H6(v13) => e + C2H2 + H2 + H2		! f36 * Bolsig+ C2H6(v13) -> C2H2 H2 H2
e + C2H6 => e + CH4 + CH2		! f37 * Bolsig+ C2H6 -> CH4 CH2
e + C2H6(v24) => e + CH4 + CH2		! f37 * Bolsig+ C2H6(v24) -> CH4 CH2
e + C2H6(v13) => e + CH4 + CH2		! f37 * Bolsig+ C2H6(v13) -> CH4 CH2
e + C2H6 => e + CH3 + CH3		! f38 * Bolsig+ C2H6 -> CH3 CH3
e + C2H6(v24) => e + CH3 + CH3		! f38 * Bolsig+ C2H6(v24) -> CH3 CH3
e + C2H6(v13) => e + CH3 + CH3		! f38 * Bolsig+ C2H6(v13) -> CH3 CH3
e + C2H5 => e + C2H4 + H		! f39 * Bolsig+ C2H5 -> C2H4 H
e + C2H5 => e + C2H3 + H2		! f40 * Bolsig+ C2H5 -> C2H3 H2
e + C2H5 => e + C2H3 + H + H		! f41 * Bolsig+ C2H5 -> C2H3 H H
e + C2H5 => e + C2H2 + H2 + H		! f42 * Bolsig+ C2H5 -> C2H2 H2 H
e + C2H5 => e + CH4 + CH		! f43 * Bolsig+ C2H5 -> CH4 CH
e + C2H5 => e + CH3 + CH2		! f44 * Bolsig+ C2H5 -> CH3 CH2
e + C2H4 => e + C2H3 + H		! f45 * Bolsig+ C2H4 -> C2H3 H
e + C2H4(v1) => e + C2H3 + H		! f45 * Bolsig+ C2H4(v1) -> C2H3 H
e + C2H4(v2) => e + C2H3 + H		! f45 * Bolsig+ C2H4(v2) -> C2H3 H
e + C2H4 => e + C2H2 + H2		! f46 * Bolsig+ C2H4 -> C2H2 H2
e + C2H4(v1) => e + C2H2 + H2		! f46 * Bolsig+ C2H4(v1) -> C2H2 H2
e + C2H4(v2) => e + C2H2 + H2		! f46 * Bolsig+ C2H4(v2) -> C2H2 H2
e + C2H4 => e + C2H2 + H + H		! f47 * Bolsig+ C2H4 -> C2H2 H H
e + C2H4(v1) => e + C2H2 + H + H		! f47 * Bolsig+ C2H4(v1) -> C2H2 H H
e + C2H4(v2) => e + C2H2 + H + H		! f47 * Bolsig+ C2H4(v2) -> C2H2 H H
e + C2H4 => e + CH3 + CH		! f48 * Bolsig+ C2H4 -> CH3 CH
e + C2H4(v1) => e + CH3 + CH		! f48 * Bolsig+ C2H4(v1) -> CH3 CH
e + C2H4(v2) => e + CH3 + CH		! f48 * Bolsig+ C2H4(v2) -> CH3 CH
e + C2H4 => e + CH2 + CH2		! f49 * Bolsig+ C2H4 -> CH2 CH2
e + C2H4(v1) => e + CH2 + CH2		! f49 * Bolsig+ C2H4(v1) -> CH2 CH2
e + C2H4(v2) => e + CH2 + CH2		! f49 * Bolsig+ C2H4(v2) -> CH2 CH2
e + C2H3 => e + C2H2 + H		! f50 * Bolsig+ C2H3 -> C2H2 H
e + C2H3 => e + CH2 + CH		! f51 * Bolsig+ C2H3 -> CH2 CH
e + C2H2 => e + CH + CH		! f52 * Bolsig+ C2H2 -> CH CH
e + C2H2(v5) => e + CH + CH		! f52 * Bolsig+ C2H2(v5) -> CH CH
e + C2H2(v2) => e + CH + CH		! f52 * Bolsig+ C2H2(v2) -> CH CH
e + C2H2(v13) => e + CH + CH		! f52 * Bolsig+ C2H2(v13) -> CH CH
e + C2H6 => e + e + C2H6^+		! f53 * Bolsig+ C2H6 -> C2H6^+
e + C2H6(v24) => e + e + C2H6^+		! f53 * Bolsig+ C2H6(v24) -> C2H6^+
e + C2H6(v13) => e + e + C2H6^+		! f53 * Bolsig+ C2H6(v13) -> C2H6^+
e + C2H6 => e + e + H + C2H5^+		! f54 * Bolsig+ C2H6 -> H C2H5^+
e + C2H6(v24) => e + e + H + C2H5^+		! f54 * Bolsig+ C2H6(v24) -> H C2H5^+
e + C2H6(v13) => e + e + H + C2H5^+		! f54 * Bolsig+ C2H6(v13) -> H C2H5^+
e + C2H6 => e + e + H2 + C2H4^+		! f55 * Bolsig+ C2H6 -> H2 C2H4^+
e + C2H6(v24) => e + e + H2 + C2H4^+		! f55 * Bolsig+ C2H6(v24) -> H2 C2H4^+
e + C2H6(v13) => e + e + H2 + C2H4^+		! f55 * Bolsig+ C2H6(v13) -> H2 C2H4^+
e + C2H6 => e + e + H2 + H + C2H3^+		! f56 * Bolsig+ C2H6 -> H2 H C2H3^+
e + C2H6(v24) => e + e + H2 + H + C2H3^+		! f56 * Bolsig+ C2H6(v24) -> H2 H C2H3^+
e + C2H6(v13) => e + e + H2 + H + C2H3^+		! f56 * Bolsig+ C2H6(v13) -> H2 H C2H3^+
e + C2H6 => e + e + H2 + H2 + C2H2^+		! f57 * Bolsig+ C2H6 -> H2 H2 C2H2^+
e + C2H6(v24) => e + e + H2 + H2 + C2H2^+		! f57 * Bolsig+ C2H6(v24) -> H2 H2 C2H2^+
e + C2H6(v13) => e + e + H2 + H2 + C2H2^+		! f57 * Bolsig+ C2H6(v13) -> H2 H2 C2H2^+
e + C2H6 => e + e + CH3 + CH3^+		! f58 * Bolsig+ C2H6 -> CH3 CH3^+
e + C2H6(v24) => e + e + CH3 + CH3^+		! f58 * Bolsig+ C2H6(v24) -> CH3 CH3^+
e + C2H6(v13) => e + e + CH3 + CH3^+		! f58 * Bolsig+ C2H6(v13) -> CH3 CH3^+
e + C2H6 => e + e + CH4 + CH2^+		! f59 * Bolsig+ C2H6 -> CH4 CH2^+
e + C2H6(v24) => e + e + CH4 + CH2^+		! f59 * Bolsig+ C2H6(v24) -> CH4 CH2^+
e + C2H6(v13) => e + e + CH4 + CH2^+		! f59 * Bolsig+ C2H6(v13) -> CH4 CH2^+
e + C2H5 => e + e + C2H5^+		! f60 * Bolsig+ C2H5 -> C2H5^+
e + C2H5 => e + e + H + C2H4^+		! f61 * Bolsig+ C2H5 -> H C2H4^+
e + C2H5 => e + e + H2 + C2H3^+		! f62 * Bolsig+ C2H5 -> H2 C2H3^+
e + C2H5 => e + e + H2 + H + C2H2^+		! f63 * Bolsig+ C2H5 -> H2 H C2H2^+
e + C2H5 => e + e + CH2 + CH3^+		! f64 * Bolsig+ C2H5 -> CH2 CH3^+
e + C2H5 => e + e + CH3 + CH2^+		! f65 * Bolsig+ C2H5 -> CH3 CH2^+
e + C2H5 => e + e + CH4 + CH^+		! f66 * Bolsig+ C2H5 -> CH4 CH^+
e + C2H4 => e + e + C2H4^+		! f67 * Bolsig+ C2H4 -> C2H4^+
e + C2H4(v1) => e + e + C2H4^+		! f67 * Bolsig+ C2H4(v1) -> C2H4^+
e + C2H4(v2) => e + e + C2H4^+		! f67 * Bolsig+ C2H4(v2) -> C2H4^+
e + C2H4 => e + e + H + C2H3^+		! f68 * Bolsig+ C2H4 -> H C2H3^+
e + C2H4(v1) => e + e + H + C2H3^+		! f68 * Bolsig+ C2H4(v1) -> H C2H3^+
e + C2H4(v2) => e + e + H + C2H3^+		! f68 * Bolsig+ C2H4(v2) -> H C2H3^+
e + C2H4 => e + e + CH + CH3^+		! f69 * Bolsig+ C2H4 -> CH CH3^+
e + C2H4(v1) => e + e + CH + CH3^+		! f69 * Bolsig+ C2H4(v1) -> CH CH3^+
e + C2H4(v2) => e + e + CH + CH3^+		! f69 * Bolsig+ C2H4(v2) -> CH CH3^+
e + C2H4 => e + e + CH2 + CH2^+		! f70 * Bolsig+ C2H4 -> CH2 CH2^+
e + C2H4(v1) => e + e + CH2 + CH2^+		! f70 * Bolsig+ C2H4(v1) -> CH2 CH2^+
e + C2H4(v2) => e + e + CH2 + CH2^+		! f70 * Bolsig+ C2H4(v2) -> CH2 CH2^+
e + C2H4 => e + e + CH3 + CH^+		! f71 * Bolsig+ C2H4 -> CH3 CH^+
e + C2H4(v1) => e + e + CH3 + CH^+		! f71 * Bolsig+ C2H4(v1) -> CH3 CH^+
e + C2H4(v2) => e + e + CH3 + CH^+		! f71 * Bolsig+ C2H4(v2) -> CH3 CH^+
e + C2H3 => e + e + C2H3^+		! f72 * Bolsig+ C2H3 -> C2H3^+
e + C2H3 => e + e + H + C2H2^+		! f73 * Bolsig+ C2H3 -> H C2H2^+
e + C2H3 => e + e + CH + CH2^+		! f74 * Bolsig+ C2H3 -> CH CH2^+
e + C2H3 => e + e + CH2 + CH^+		! f75 * Bolsig+ C2H3 -> CH2 CH^+
e + C2H3 => e + e + C2H2 + H^+		! f76 * Bolsig+ C2H3 -> C2H2 H^+
e + C2H2 => e + e + C2H2^+		! f77 * Bolsig+ C2H2 -> C2H2^+
e + C2H2(v5) => e + e + C2H2^+		! f77 * Bolsig+ C2H2(v5) -> C2H2^+
e + C2H2(v2) => e + e + C2H2^+		! f77 * Bolsig+ C2H2(v2) -> C2H2^+
e + C2H2(v13) => e + e + C2H2^+		! f77 * Bolsig+ C2H2(v13) -> C2H2^+
e + C2H2 => e + e + CH + CH^+		! f78 * Bolsig+ C2H2 -> CH CH^+
e + C2H2(v5) => e + e + CH + CH^+		! f78 * Bolsig+ C2H2(v5) -> CH CH^+
e + C2H2(v2) => e + e + CH + CH^+		! f78 * Bolsig+ C2H2(v2) -> CH CH^+
e + C2H2(v13) => e + e + CH + CH^+		! f78 * Bolsig+ C2H2(v13) -> CH CH^+
e + C3H8 => e + C3H7 + H		! f79 * Bolsig+ C3H8 -> C3H7 H
e + C3H8(v1) => e + C3H7 + H		! f79 * Bolsig+ C3H8(v1) -> C3H7 H
e + C3H8(v2) => e + C3H7 + H		! f79 * Bolsig+ C3H8(v2) -> C3H7 H
e + C3H8 => e + C3H6 + H2		! f80 * Bolsig+ C3H8 -> C3H6 H2
e + C3H8(v1) => e + C3H6 + H2		! f80 * Bolsig+ C3H8(v1) -> C3H6 H2
e + C3H8(v2) => e + C3H6 + H2		! f80 * Bolsig+ C3H8(v2) -> C3H6 H2
e + C3H7 => e + C3H6 + H		! f81 * Bolsig+ C3H7 -> C3H6 H
e + C3H8 => e + e + C3H8^+		! f82 * Bolsig+ C3H8 -> C3H8^+
e + C3H8(v1) => e + e + C3H8^+		! f82 * Bolsig+ C3H8(v1) -> C3H8^+
e + C3H8(v2) => e + e + C3H8^+		! f82 * Bolsig+ C3H8(v2) -> C3H8^+
e + C3H8 => e + e + H + C3H7^+		! f83 * Bolsig+ C3H8 -> H C3H7^+
e + C3H8(v1) => e + e + H + C3H7^+		! f83 * Bolsig+ C3H8(v1) -> H C3H7^+
e + C3H8(v2) => e + e + H + C3H7^+		! f83 * Bolsig+ C3H8(v2) -> H C3H7^+
e + C3H8 => e + e + H2 + C3H6^+		! f84 * Bolsig+ C3H8 -> H2 C3H6^+
e + C3H8(v1) => e + e + H2 + C3H6^+		! f84 * Bolsig+ C3H8(v1) -> H2 C3H6^+
e + C3H8(v2) => e + e + H2 + C3H6^+		! f84 * Bolsig+ C3H8(v2) -> H2 C3H6^+
e + C3H7 => e + e + C3H7^+		! f85 * Bolsig+ C3H7 -> C3H7^+
e + C3H7 => e + e + H + C3H6^+		! f86 * Bolsig+ C3H7 -> H C3H6^+
e + C3H6 => e + e + C3H6^+		! f87 * Bolsig+ C3H6 -> C3H6^+
e + C3H6(v) => e + e + C3H6^+		! f87 * Bolsig+ C3H6(v) -> C3H6^+
e + C3H6 => e + C2H2 + CH4		! f88 * Bolsig+ C3H6 -> C2H2 CH4
e + C3H6(v) => e + C2H2 + CH4		! f88 * Bolsig+ C3H6(v) -> C2H2 CH4
e + C3H6 => e + e + C2H2 + CH4^+		! f89 * Bolsig+ C3H6 -> C2H2 CH4^+
e + C3H6(v) => e + e + C2H2 + CH4^+		! f89 * Bolsig+ C3H6(v) -> C2H2 CH4^+

# Ion Recombination Reaction
e + e + CH^+ => e + CH		! f90 * 1.00d0
e + e + CH2^+ => e + CH2		! f91 * 1.00d0
e + e + CH3^+ => e + CH3		! f92 * 1.00d0
e + e + CH4^+ => e + CH4		! f93 * 1.00d0
e + e + C2H2^+ => e + C2H2		! f94 * 1.00d0
e + e + C2H3^+ => e + C2H3		! f95 * 1.00d0
e + e + C2H4^+ => e + C2H4		! f96 * 1.00d0
e + e + C2H5^+ => e + C2H5		! f97 * 1.00d0
e + e + C2H6^+ => e + C2H6		! f98 * 1.00d0
e + e + C3H6^+ => e + C3H6		! f99 * 1.00d0
e + e + C3H7^+ => e + C3H7		! f100 * 1.00d0
e + e + C3H8^+ => e + C3H8		! f101 * 1.00d0

# Gas Phase Reaction
e + CH4^+ => CH3 + H		! f102 * 1.18d-08 * (300./Tgas)**0.5
e + CH4^+ => CH2 + H + H		! f103 * 2.42d-08 * (300./Tgas)**0.5
e + CH4^+ => CH + H2 + H		! f104 * 1.41d-08 * (300./Tgas)**0.5
e + CH3^+ => CH2 + H		! f105 * 2.25d-08 * (300./Tgas)**0.5
e + CH3^+ => CH + H2		! f106 * 7.88d-09 * (300./Tgas)**0.5
e + CH3^+ => CH + H + H		! f107 * 9.00d-09 * (300./Tgas)**0.5
e + CH3^+ => C + H2 + H		! f108 * 1.69d-08 * (300./Tgas)**0.5
e + CH2^+ => CH + H		! f109 * 1.00d-08 * (300./Tgas)**0.5
e + CH2^+ => C + H2		! f110 * 4.82d-09 * (300./Tgas)**0.5
e + CH2^+ => C + H + H		! f111 * 2.53d-08 * (300./Tgas)**0.5
e + CH^+ => C + H		! f112 * 3.23d-08 * (300./Tgas)**0.42
e + C2H6^+ => C2H5 + H		! f113 * 2.19d-08 * (300./Tgas)**0.71
e + C2H6^+ => C2H4 + H + H		! f114 * 3.36d-08 * (300./Tgas)**0.71
e + C2H5^+ => C2H4 + H		! f115 * 7.70d-09 * (300./Tgas)**0.71
e + C2H5^+ => C2H3 + H + H		! f116 * 1.92d-08 * (300./Tgas)**0.71
e + C2H5^+ => C2H2 + H2 + H		! f117 * 1.60d-08 * (300./Tgas)**0.71
e + C2H5^+ => C2H2 + H + H + H		! f118 * 8.98d-09 * (300./Tgas)**0.71
e + C2H5^+ => CH3 + CH2		! f119 * 9.62d-09 * (300./Tgas)**0.71
e + C2H4^+ => C2H3 + H		! f120 * 8.29d-09 * (300./Tgas)**0.71
e + C2H4^+ => C2H2 + H + H		! f121 * 3.43d-08 * (300./Tgas)**0.71
e + C2H3^+ => C2H2 + H		! f122 * 1.34d-08 * (300./Tgas)**0.71
e + C2H2^+ => CH + CH		! f123 * 4.87d-09 * (300./Tgas)**0.71
e + H2^+ => H + H		! f124 * 3.17d21/(6.022d23 * Te**4.5)
e + H3^+ => H + H2		! f125 * 3.17d21/(6.022d23 * Te**4.5)
H2 + H2^+ => H + H3^+		! f126 * 2.11d-09
C2H6 + CH4^+ => CH4 + H2 + C2H4^+		! f127 * 1.91d-9
C2H6(v24) + CH4^+ => CH4 + H2 + C2H4^+		! f127 * 1.91d-9
C2H6(v13) + CH4^+ => CH4 + H2 + C2H4^+		! f127 * 1.91d-9
C2H4 + CH4^+ => CH3 + C2H5^+		! f128 * 4.23d-10