ELEMENTS
e C H
END

SPECIES
e C CH CH^+ CH2 CH2^+ CH3 CH3^+ CH4 CH4(v13) CH4(v24) CH4^+ C2H2 C2H2(v13) C2H2(v2) C2H2(v5) C2H2^+ C2H3 C2H3^+ C2H4 C2H4(v1) C2H4(v2) C2H4^+ C2H5 C2H5^+
C2H6 C2H6(v13) C2H6(v24) C2H6^+ C3H5 C3H6 C3H6(v) C3H6^+ C3H7 C3H7^+ C3H8 C3H8(v1) C3H8(v2) C3H8^+ C4H9 C4H9H C2H C5H12 H H2 H2^+ H3^+ H^+
END

BOLSIG
CH CH2 CH3 CH4 CH4(v13) CH4(v24) C2H2 C2H2(v13) C2H2(v2) C2H2(v5) C2H3 C2H4 C2H4(v1) C2H4(v2) C2H5 C2H6 C2H6(v13) C2H6(v24) C3H6 C3H6(v) C3H7 C3H8 C3H8(v1) C3H8(v2)
END

REACTIONS
# Gas Constant
$ double precision, parameter :: R = 8.314d-3

# Compensation Parameters
$ double precision, parameter :: f0 = 1.2873d-8
$ double precision, parameter :: f1 = 8.2470d-3
$ double precision, parameter :: f2 = 3.4895d-2
$ double precision, parameter :: f3 = 1.2001d-1
$ double precision, parameter :: f4 = 4.7691d-2
$ double precision, parameter :: f5 = 1.1259d-3
$ double precision, parameter :: f6 = 1.0381d-8
$ double precision, parameter :: f7 = 5.4677d-8
$ double precision, parameter :: f8 = 5.6993d-2
$ double precision, parameter :: f9 = 4.5859d-7
$ double precision, parameter :: f10 = 3.4895d-1
$ double precision, parameter :: f11 = 5.8038d+2
$ double precision, parameter :: f12 = 1.1310d-7
$ double precision, parameter :: f13 = 5.0452d-8
$ double precision, parameter :: f14 = 9.9899d+1
$ double precision, parameter :: f15 = 3.5957d-6
$ double precision, parameter :: f16 = 8.8164d-3
$ double precision, parameter :: f17 = 9.7109d-3
$ double precision, parameter :: f18 = 1.2891d0
$ double precision, parameter :: f19 = 3.6832d+1
$ double precision, parameter :: f20 = 9.3318d+1
$ double precision, parameter :: f21 = 1.6282d-5
$ double precision, parameter :: f22 = 1.0405d-6
$ double precision, parameter :: f23 = 3.0993d0
$ double precision, parameter :: f24 = 2.4988d-5
$ double precision, parameter :: f25 = 1.6629d0
$ double precision, parameter :: f26 = 2.8132d+2
$ double precision, parameter :: f27 = 2.0472d-5
$ double precision, parameter :: f28 = 2.0839d0
$ double precision, parameter :: f29 = 2.3272d+1
$ double precision, parameter :: f30 = 2.1764d-1
$ double precision, parameter :: f31 = 2.4827d-4
$ double precision, parameter :: f32 = 1.3821d-1
$ double precision, parameter :: f33 = 1.0332d-5
$ double precision, parameter :: f34 = 2.6723d-3
$ double precision, parameter :: f35 = 9.3144d-4
$ double precision, parameter :: f36 = 2.0461d-8
$ double precision, parameter :: f37 = 2.0551d-8
$ double precision, parameter :: f38 = 7.8424d+1
$ double precision, parameter :: f39 = 9.5830d+2
$ double precision, parameter :: f40 = 3.8492d-1
$ double precision, parameter :: f41 = 5.4266d-2
$ double precision, parameter :: f42 = 9.3662d-5
$ double precision, parameter :: f43 = 3.7250d-2
$ double precision, parameter :: f44 = 4.7834d-3
$ double precision, parameter :: f45 = 4.4024d-6
$ double precision, parameter :: f46 = 7.7470d-8
$ double precision, parameter :: f47 = 1.5446d-1
$ double precision, parameter :: f48 = 1.6867d-5
$ double precision, parameter :: f49 = 2.4794d-6
$ double precision, parameter :: f50 = 4.8486d+1
$ double precision, parameter :: f51 = 1.1855d-3
$ double precision, parameter :: f52 = 1.3098d-8
$ double precision, parameter :: f53 = 4.8742d-7
$ double precision, parameter :: f54 = 5.6728d-4
$ double precision, parameter :: f55 = 2.8105d-1
$ double precision, parameter :: f56 = 1.9970d+1
$ double precision, parameter :: f57 = 1.5454d-8
$ double precision, parameter :: f58 = 1.2319d0
$ double precision, parameter :: f59 = 1.1219d-2
$ double precision, parameter :: f60 = 2.2892d-3
$ double precision, parameter :: f61 = 2.2039d-4
$ double precision, parameter :: f62 = 7.5982d-8
$ double precision, parameter :: f63 = 9.2696d-8
$ double precision, parameter :: f64 = 1.6258d-4
$ double precision, parameter :: f65 = 2.9499d-6
$ double precision, parameter :: f66 = 5.0152d0
$ double precision, parameter :: f67 = 5.3757d-1
$ double precision, parameter :: f68 = 5.7846d-5
$ double precision, parameter :: f69 = 6.8192d-8
$ double precision, parameter :: f70 = 6.3426d-4
$ double precision, parameter :: f71 = 2.5153d-5
$ double precision, parameter :: f72 = 2.4958d+2
$ double precision, parameter :: f73 = 3.1994d-4
$ double precision, parameter :: f74 = 1.2624d-6
$ double precision, parameter :: f75 = 1.4678d-2
$ double precision, parameter :: f76 = 8.1490d-5
$ double precision, parameter :: f77 = 3.5504d-2
$ double precision, parameter :: f78 = 9.2239d-8
$ double precision, parameter :: f79 = 7.5659d-3
$ double precision, parameter :: f80 = 5.9378d0
$ double precision, parameter :: f81 = 7.6976d-8
$ double precision, parameter :: f82 = 2.7652d+2
$ double precision, parameter :: f83 = 3.0608d-2
$ double precision, parameter :: f84 = 3.9744d-5
$ double precision, parameter :: f85 = 1.3908d-6
$ double precision, parameter :: f86 = 5.0642d-7
$ double precision, parameter :: f87 = 1.0086d-8
$ double precision, parameter :: f88 = 6.6636d-6
$ double precision, parameter :: f89 = 6.1328d-6
$ double precision, parameter :: f90 = 2.7917d-5
$ double precision, parameter :: f91 = 3.1797d+2
$ double precision, parameter :: f92 = 5.5811d-3
$ double precision, parameter :: f93 = 1.0193d-6
$ double precision, parameter :: f94 = 1.5726d+1
$ double precision, parameter :: f95 = 6.1637d-8
$ double precision, parameter :: f96 = 5.7786d-6
$ double precision, parameter :: f97 = 1.4057d-6
$ double precision, parameter :: f98 = 3.4637d-5
$ double precision, parameter :: f99 = 3.9673d-1
$ double precision, parameter :: f100 = 5.5226d-3
$ double precision, parameter :: f101 = 1.1553d+2
$ double precision, parameter :: f102 = 1.8302d-5
$ double precision, parameter :: f103 = 8.9073d-1
$ double precision, parameter :: f104 = 1.0367d-6
$ double precision, parameter :: f105 = 1.0876d-2
$ double precision, parameter :: f106 = 1.5980d+2
$ double precision, parameter :: f107 = 9.2134d-4
$ double precision, parameter :: f108 = 2.1032d-2
$ double precision, parameter :: f109 = 1.7785d0
$ double precision, parameter :: f110 = 1.0485d-6
$ double precision, parameter :: f111 = 1.8662d0
$ double precision, parameter :: f112 = 7.7040d-8
$ double precision, parameter :: f113 = 6.7185d-5
$ double precision, parameter :: f114 = 5.9252d-8
$ double precision, parameter :: f115 = 1.8173d-4
$ double precision, parameter :: f116 = 1.1327d-8
$ double precision, parameter :: f117 = 8.5894d-2
$ double precision, parameter :: f118 = 3.4663d-6
$ double precision, parameter :: f119 = 1.2390d-1
$ double precision, parameter :: f120 = 1.2200d-6
$ double precision, parameter :: f121 = 7.5817d-1
$ double precision, parameter :: f122 = 4.7163d-2
$ double precision, parameter :: f123 = 2.6068d-2
$ double precision, parameter :: f124 = 2.7940d-2
$ double precision, parameter :: f125 = 2.9947d0
$ double precision, parameter :: f126 = 9.3209d-8
$ double precision, parameter :: f127 = 7.6981d-4
$ double precision, parameter :: f128 = 9.6318d-1
$ double precision, parameter :: f129 = 3.7433d+2
$ double precision, parameter :: f130 = 3.0351d-4
$ double precision, parameter :: f131 = 1.6727d0
$ double precision, parameter :: f132 = 8.1797d-2
$ double precision, parameter :: f133 = 2.8377d0
$ double precision, parameter :: f134 = 6.2474d-2
$ double precision, parameter :: f135 = 3.0527d-4
$ double precision, parameter :: f136 = 1.6896d-7
$ double precision, parameter :: f137 = 2.1368d+2
$ double precision, parameter :: f138 = 1.2226d-4
$ double precision, parameter :: f139 = 1.4909d-3
$ double precision, parameter :: f140 = 3.7619d-2
$ double precision, parameter :: f141 = 3.2096d-5
$ double precision, parameter :: f142 = 4.9320d-1
$ double precision, parameter :: f143 = 9.8928d-1
$ double precision, parameter :: f144 = 5.6572d-4
$ double precision, parameter :: f145 = 3.1192d-6
$ double precision, parameter :: f146 = 2.9214d-7
$ double precision, parameter :: f147 = 1.8664d-8
$ double precision, parameter :: f148 = 3.3191d-5
$ double precision, parameter :: f149 = 1.0466d0
$ double precision, parameter :: f150 = 7.3468d-1
$ double precision, parameter :: f151 = 1.7242d-8
$ double precision, parameter :: f152 = 2.6598d-5
$ double precision, parameter :: f153 = 4.2865d-7
$ double precision, parameter :: f154 = 1.0736d-5
$ double precision, parameter :: f155 = 8.0060d-1
$ double precision, parameter :: f156 = 1.1733d-7
$ double precision, parameter :: f157 = 2.4554d-8
$ double precision, parameter :: f158 = 7.9731d-4
$ double precision, parameter :: f159 = 1.3619d-6
$ double precision, parameter :: f160 = 1.0786d-4
$ double precision, parameter :: f161 = 7.9846d-4
$ double precision, parameter :: f162 = 1.0145d-5
$ double precision, parameter :: f163 = 1.7713d-8
$ double precision, parameter :: f164 = 4.1124d+2
$ double precision, parameter :: f165 = 5.2970d-4
$ double precision, parameter :: f166 = 1.2111d-6
$ double precision, parameter :: f167 = 1.0547d-5
$ double precision, parameter :: f168 = 1.6064d-6
$ double precision, parameter :: f169 = 1.4432d-7
$ double precision, parameter :: f170 = 3.3453d-4
$ double precision, parameter :: f171 = 3.1521d-2
$ double precision, parameter :: f172 = 8.4543d0
$ double precision, parameter :: f173 = 8.0323d-4
$ double precision, parameter :: f174 = 7.7121d-8
$ double precision, parameter :: f175 = 1.5674d+1
$ double precision, parameter :: f176 = 1.8675d-7
$ double precision, parameter :: f177 = 9.7672d-4
$ double precision, parameter :: f178 = 7.2264d+1
$ double precision, parameter :: f179 = 7.6354d-6
$ double precision, parameter :: f180 = 3.0427d+2
$ double precision, parameter :: f181 = 3.0866d+2
$ double precision, parameter :: f182 = 4.3203d-6
$ double precision, parameter :: f183 = 5.5803d-7
$ double precision, parameter :: f184 = 1.1033d-5
$ double precision, parameter :: f185 = 8.2237d+2
$ double precision, parameter :: f186 = 6.9620d-2
$ double precision, parameter :: f187 = 1.0087d-8
$ double precision, parameter :: f188 = 9.3387d+2
$ double precision, parameter :: f189 = 1.2254d-7
$ double precision, parameter :: f190 = 3.5746d-2
$ double precision, parameter :: f191 = 4.0498d-3
$ double precision, parameter :: f192 = 4.8466d-6
$ double precision, parameter :: f193 = 7.7414d-8
$ double precision, parameter :: f194 = 2.1712d0
$ double precision, parameter :: f195 = 5.6662d-3
$ double precision, parameter :: f196 = 2.0745d-5
$ double precision, parameter :: f197 = 4.2045d0
$ double precision, parameter :: f198 = 9.9796d-5
$ double precision, parameter :: f199 = 1.2370d-3
$ double precision, parameter :: f200 = 3.9770d-8
$ double precision, parameter :: f201 = 7.2126d-8
$ double precision, parameter :: f202 = 5.8403d+2
$ double precision, parameter :: f203 = 4.5099d-8
$ double precision, parameter :: f204 = 6.1288d-5
$ double precision, parameter :: f205 = 1.2620d-8
$ double precision, parameter :: f206 = 1.3991d-5
$ double precision, parameter :: f207 = 7.1739d+2
$ double precision, parameter :: f208 = 5.6203d-1
$ double precision, parameter :: f209 = 1.9146d-4
$ double precision, parameter :: f210 = 8.7928d-4
$ double precision, parameter :: f211 = 8.9932d-8
$ double precision, parameter :: f212 = 2.8523d-3
$ double precision, parameter :: f213 = 3.4199d+2
$ double precision, parameter :: f214 = 2.6722d-2
$ double precision, parameter :: f215 = 2.2354d0
$ double precision, parameter :: f216 = 7.3696d-1
$ double precision, parameter :: f217 = 1.0565d-4
$ double precision, parameter :: f218 = 2.6173d-1
$ double precision, parameter :: f219 = 4.7206d-7
$ double precision, parameter :: f220 = 6.5986d-2
$ double precision, parameter :: f221 = 4.6546d-1
$ double precision, parameter :: f222 = 3.7937d-3
$ double precision, parameter :: f223 = 4.4651d0
$ double precision, parameter :: f224 = 3.8416d+1
$ double precision, parameter :: f225 = 5.8779d-8
$ double precision, parameter :: f226 = 8.7560d-6
$ double precision, parameter :: f227 = 2.2797d0
$ double precision, parameter :: f228 = 1.2543d-7
$ double precision, parameter :: f229 = 3.9615d-4
$ double precision, parameter :: f230 = 4.1075d-1
$ double precision, parameter :: f231 = 3.2008d-1
$ double precision, parameter :: f232 = 8.5526d+2
$ double precision, parameter :: f233 = 1.7557d+2
$ double precision, parameter :: f234 = 2.5796d-6
$ double precision, parameter :: f235 = 1.7464d+2
$ double precision, parameter :: f236 = 3.9364d-3
$ double precision, parameter :: f237 = 2.0650d-5
$ double precision, parameter :: f238 = 6.7542d-5
$ double precision, parameter :: f239 = 2.1729d-1
$ double precision, parameter :: f240 = 1.1573d-7
$ double precision, parameter :: f241 = 1.5619d0
$ double precision, parameter :: f242 = 1.6628d+1
$ double precision, parameter :: f243 = 1.8708d-2
$ double precision, parameter :: f244 = 1.0430d-5
$ double precision, parameter :: f245 = 1.0303d-5
$ double precision, parameter :: f246 = 2.5336d-4
$ double precision, parameter :: f247 = 1.2531d-4
$ double precision, parameter :: f248 = 3.5170d-5
$ double precision, parameter :: f249 = 3.0403d-6
$ double precision, parameter :: f250 = 4.4175d-7
$ double precision, parameter :: f251 = 1.6920d+1
$ double precision, parameter :: f252 = 4.5913d-7
$ double precision, parameter :: f253 = 1.2657d-4
$ double precision, parameter :: f254 = 2.5161d-3
$ double precision, parameter :: f255 = 1.7716d+1
$ double precision, parameter :: f256 = 3.2095d0
$ double precision, parameter :: f257 = 1.2628d+2
$ double precision, parameter :: f258 = 1.2564d-5
$ double precision, parameter :: f259 = 3.8746d-5
$ double precision, parameter :: f260 = 3.7808d-7
$ double precision, parameter :: f261 = 3.1140d-4
$ double precision, parameter :: f262 = 8.8631d-4
$ double precision, parameter :: f263 = 1.1988d-3
$ double precision, parameter :: f264 = 3.0747d-8
$ double precision, parameter :: f265 = 7.5871d0
$ double precision, parameter :: f266 = 9.4090d-5
$ double precision, parameter :: f267 = 1.0048d-3
$ double precision, parameter :: f268 = 2.2080d0
$ double precision, parameter :: f269 = 1.2197d-7
$ double precision, parameter :: f270 = 5.9329d0
$ double precision, parameter :: f271 = 7.5593d-7
$ double precision, parameter :: f272 = 1.9602d-7
$ double precision, parameter :: f273 = 3.1796d-1
$ double precision, parameter :: f274 = 4.6669d-8
$ double precision, parameter :: f275 = 1.0993d+2
$ double precision, parameter :: f276 = 1.6433d0
$ double precision, parameter :: f277 = 1.1709d-5
$ double precision, parameter :: f278 = 2.0078d-3
$ double precision, parameter :: f279 = 1.3239d-5
$ double precision, parameter :: f280 = 2.5634d-4
$ double precision, parameter :: f281 = 1.5874d-8
$ double precision, parameter :: f282 = 4.7727d-2
$ double precision, parameter :: f283 = 1.6827d-7
$ double precision, parameter :: f284 = 3.3406d-1
$ double precision, parameter :: f285 = 2.0803d-3
$ double precision, parameter :: f286 = 2.2534d-3
$ double precision, parameter :: f287 = 2.8532d-5
$ double precision, parameter :: f288 = 1.9872d-1
$ double precision, parameter :: f289 = 2.3545d0
$ double precision, parameter :: f290 = 3.3165d-6
$ double precision, parameter :: f291 = 4.4809d-2
$ double precision, parameter :: f292 = 1.2651d-7
$ double precision, parameter :: f293 = 8.7248d+1
$ double precision, parameter :: f294 = 3.9015d-2
$ double precision, parameter :: f295 = 1.4677d-5
$ double precision, parameter :: f296 = 5.6781d-2
$ double precision, parameter :: f297 = 1.9707d+1
$ double precision, parameter :: f298 = 1.0422d-2
$ double precision, parameter :: f299 = 7.3401d-1
$ double precision, parameter :: f300 = 1.6282d-5
$ double precision, parameter :: f301 = 6.2540d-3
$ double precision, parameter :: f302 = 1.1343d-5
$ double precision, parameter :: f303 = 2.3032d-1
$ double precision, parameter :: f304 = 3.4334d+2
$ double precision, parameter :: f305 = 1.3591d-6
$ double precision, parameter :: f306 = 5.8447d-3
$ double precision, parameter :: f307 = 2.3627d-8
$ double precision, parameter :: f308 = 3.3807d-4
$ double precision, parameter :: f309 = 4.0752d-3
$ double precision, parameter :: f310 = 1.0608d-2
$ double precision, parameter :: f311 = 9.7767d-1
$ double precision, parameter :: f312 = 2.1535d-6
$ double precision, parameter :: f313 = 2.0161d+2
$ double precision, parameter :: f314 = 4.2939d-1
$ double precision, parameter :: f315 = 2.9068d-3

# Electron Collision Reaction
e + CH4 => e + CH4(v24)		! f0 * Bolsig+ CH4 -> CH4(v24)
e + CH4 => e + CH4(v13)		! f1 * Bolsig+ CH4 -> CH4(v13)
e + C2H6 => e + C2H6(v24)		! f2 * Bolsig+ C2H6 -> C2H6(v24)
e + C2H6 => e + C2H6(v13)		! f3 * Bolsig+ C2H6 -> C2H6(v13)
e + C2H4 => e + C2H4(v1)		! f4 * Bolsig+ C2H4 -> C2H4(v1)
e + C2H4 => e + C2H4(v2)		! f5 * Bolsig+ C2H4 -> C2H4(v2)
e + C2H2 => e + C2H2(v5)		! f6 * Bolsig+ C2H2 -> C2H2(v5)
e + C2H2 => e + C2H2(v2)		! f7 * Bolsig+ C2H2 -> C2H2(v2)
e + C2H2 => e + C2H2(v13)		! f8 * Bolsig+ C2H2 -> C2H2(v13)
e + C3H8 => e + C3H8(v1)		! f9 * Bolsig+ C3H8 -> C3H8(v1)
e + C3H8 => e + C3H8(v2)		! f10 * Bolsig+ C3H8 -> C3H8(v2)
e + C3H6 => e + C3H6(v)		! f11 * Bolsig+ C3H6 -> C3H6(v)
e + CH4 => e + CH3 + H		! f12 * Bolsig+ CH4 -> CH3 H
e + CH4(v24) => e + CH3 + H		! f12 * Bolsig+ CH4(v24) -> CH3 H
e + CH4(v13) => e + CH3 + H		! f12 * Bolsig+ CH4(v13) -> CH3 H
e + CH4 => e + CH2 + H2		! f13 * Bolsig+ CH4 -> CH2 H2
e + CH4(v24) => e + CH2 + H2		! f13 * Bolsig+ CH4(v24) -> CH2 H2
e + CH4(v13) => e + CH2 + H2		! f13 * Bolsig+ CH4(v13) -> CH2 H2
e + CH4 => e + CH + H2 + H		! f14 * Bolsig+ CH4 -> CH H2 H
e + CH4(v24) => e + CH + H2 + H		! f14 * Bolsig+ CH4(v24) -> CH H2 H
e + CH4(v13) => e + CH + H2 + H		! f14 * Bolsig+ CH4(v13) -> CH H2 H
e + CH4 => e + C + H2 + H2		! f15 * Bolsig+ CH4 -> C H2 H2
e + CH4(v24) => e + C + H2 + H2		! f15 * Bolsig+ CH4(v24) -> C H2 H2
e + CH4(v13) => e + C + H2 + H2		! f15 * Bolsig+ CH4(v13) -> C H2 H2
e + CH3 => e + CH2 + H		! f16 * Bolsig+ CH3 -> CH2 H
e + CH3 => e + CH + H2		! f17 * Bolsig+ CH3 -> CH H2
e + CH3 => e + C + H2 + H		! f18 * Bolsig+ CH3 -> C H2 H
e + CH2 => e + CH + H		! f19 * Bolsig+ CH2 -> CH H
e + CH2 => e + C + H2		! f20 * Bolsig+ CH2 -> C H2
e + CH2 => e + C + H + H		! f21 * Bolsig+ CH2 -> C H H
e + CH => e + C + H		! f22 * Bolsig+ CH -> C H
e + CH4 => e + e + CH4^+		! f23 * Bolsig+ CH4 -> CH4^+
e + CH4(v24) => e + e + CH4^+		! f23 * Bolsig+ CH4(v24) -> CH4^+
e + CH4(v13) => e + e + CH4^+		! f23 * Bolsig+ CH4(v13) -> CH4^+
e + CH4 => e + e + H + CH3^+		! f24 * Bolsig+ CH4 -> H CH3^+
e + CH4(v24) => e + e + H + CH3^+		! f24 * Bolsig+ CH4(v24) -> H CH3^+
e + CH4(v13) => e + e + H + CH3^+		! f24 * Bolsig+ CH4(v13) -> H CH3^+
e + CH4 => e + e + H2 + CH2^+		! f25 * Bolsig+ CH4 -> H2 CH2^+
e + CH4(v24) => e + e + H2 + CH2^+		! f25 * Bolsig+ CH4(v24) -> H2 CH2^+
e + CH4(v13) => e + e + H2 + CH2^+		! f25 * Bolsig+ CH4(v13) -> H2 CH2^+
e + CH4 => e + e + H2 + H + CH^+		! f26 * Bolsig+ CH4 -> H2 H CH^+
e + CH4(v24) => e + e + H2 + H + CH^+		! f26 * Bolsig+ CH4(v24) -> H2 H CH^+
e + CH4(v13) => e + e + H2 + H + CH^+		! f26 * Bolsig+ CH4(v13) -> H2 H CH^+
e + CH3 => e + e + CH3^+		! f27 * Bolsig+ CH3 -> CH3^+
e + CH3 => e + e + H + CH2^+		! f28 * Bolsig+ CH3 -> H CH2^+
e + CH3 => e + e + H2 + CH^+		! f29 * Bolsig+ CH3 -> H2 CH^+
e + CH2 => e + e + CH2^+		! f30 * Bolsig+ CH2 -> CH2^+
e + CH2 => e + e + H + CH^+		! f31 * Bolsig+ CH2 -> H CH^+
e + CH => e + e + CH^+		! f32 * Bolsig+ CH -> CH^+
e + C2H6 => e + C2H5 + H		! f33 * Bolsig+ C2H6 -> C2H5 H
e + C2H6(v24) => e + C2H5 + H		! f33 * Bolsig+ C2H6(v24) -> C2H5 H
e + C2H6(v13) => e + C2H5 + H		! f33 * Bolsig+ C2H6(v13) -> C2H5 H
e + C2H6 => e + C2H4 + H2		! f34 * Bolsig+ C2H6 -> C2H4 H2
e + C2H6(v24) => e + C2H4 + H2		! f34 * Bolsig+ C2H6(v24) -> C2H4 H2
e + C2H6(v13) => e + C2H4 + H2		! f34 * Bolsig+ C2H6(v13) -> C2H4 H2
e + C2H6 => e + C2H3 + H2 + H		! f35 * Bolsig+ C2H6 -> C2H3 H2 H
e + C2H6(v24) => e + C2H3 + H2 + H		! f35 * Bolsig+ C2H6(v24) -> C2H3 H2 H
e + C2H6(v13) => e + C2H3 + H2 + H		! f35 * Bolsig+ C2H6(v13) -> C2H3 H2 H
e + C2H6 => e + C2H2 + H2 + H2		! f36 * Bolsig+ C2H6 -> C2H2 H2 H2
e + C2H6(v24) => e + C2H2 + H2 + H2		! f36 * Bolsig+ C2H6(v24) -> C2H2 H2 H2
e + C2H6(v13) => e + C2H2 + H2 + H2		! f36 * Bolsig+ C2H6(v13) -> C2H2 H2 H2
e + C2H6 => e + CH4 + CH2		! f37 * Bolsig+ C2H6 -> CH4 CH2
e + C2H6(v24) => e + CH4 + CH2		! f37 * Bolsig+ C2H6(v24) -> CH4 CH2
e + C2H6(v13) => e + CH4 + CH2		! f37 * Bolsig+ C2H6(v13) -> CH4 CH2
e + C2H6 => e + CH3 + CH3		! f38 * Bolsig+ C2H6 -> CH3 CH3
e + C2H6(v24) => e + CH3 + CH3		! f38 * Bolsig+ C2H6(v24) -> CH3 CH3
e + C2H6(v13) => e + CH3 + CH3		! f38 * Bolsig+ C2H6(v13) -> CH3 CH3
e + C2H5 => e + C2H4 + H		! f39 * Bolsig+ C2H5 -> C2H4 H
e + C2H5 => e + C2H3 + H2		! f40 * Bolsig+ C2H5 -> C2H3 H2
e + C2H5 => e + C2H3 + H + H		! f41 * Bolsig+ C2H5 -> C2H3 H H
e + C2H5 => e + C2H2 + H2 + H		! f42 * Bolsig+ C2H5 -> C2H2 H2 H
e + C2H5 => e + CH4 + CH		! f43 * Bolsig+ C2H5 -> CH4 CH
e + C2H5 => e + CH3 + CH2		! f44 * Bolsig+ C2H5 -> CH3 CH2
e + C2H4 => e + C2H3 + H		! f45 * Bolsig+ C2H4 -> C2H3 H
e + C2H4(v1) => e + C2H3 + H		! f45 * Bolsig+ C2H4(v1) -> C2H3 H
e + C2H4(v2) => e + C2H3 + H		! f45 * Bolsig+ C2H4(v2) -> C2H3 H
e + C2H4 => e + C2H2 + H2		! f46 * Bolsig+ C2H4 -> C2H2 H2
e + C2H4(v1) => e + C2H2 + H2		! f46 * Bolsig+ C2H4(v1) -> C2H2 H2
e + C2H4(v2) => e + C2H2 + H2		! f46 * Bolsig+ C2H4(v2) -> C2H2 H2
e + C2H4 => e + C2H2 + H + H		! f47 * Bolsig+ C2H4 -> C2H2 H H
e + C2H4(v1) => e + C2H2 + H + H		! f47 * Bolsig+ C2H4(v1) -> C2H2 H H
e + C2H4(v2) => e + C2H2 + H + H		! f47 * Bolsig+ C2H4(v2) -> C2H2 H H
e + C2H4 => e + CH3 + CH		! f48 * Bolsig+ C2H4 -> CH3 CH
e + C2H4(v1) => e + CH3 + CH		! f48 * Bolsig+ C2H4(v1) -> CH3 CH
e + C2H4(v2) => e + CH3 + CH		! f48 * Bolsig+ C2H4(v2) -> CH3 CH
e + C2H4 => e + CH2 + CH2		! f49 * Bolsig+ C2H4 -> CH2 CH2
e + C2H4(v1) => e + CH2 + CH2		! f49 * Bolsig+ C2H4(v1) -> CH2 CH2
e + C2H4(v2) => e + CH2 + CH2		! f49 * Bolsig+ C2H4(v2) -> CH2 CH2
e + C2H3 => e + C2H2 + H		! f50 * Bolsig+ C2H3 -> C2H2 H
e + C2H3 => e + CH2 + CH		! f51 * Bolsig+ C2H3 -> CH2 CH
e + C2H2 => e + CH + CH		! f52 * Bolsig+ C2H2 -> CH CH
e + C2H2(v5) => e + CH + CH		! f52 * Bolsig+ C2H2(v5) -> CH CH
e + C2H2(v2) => e + CH + CH		! f52 * Bolsig+ C2H2(v2) -> CH CH
e + C2H2(v13) => e + CH + CH		! f52 * Bolsig+ C2H2(v13) -> CH CH
e + C2H6 => e + e + C2H6^+		! f53 * Bolsig+ C2H6 -> C2H6^+
e + C2H6(v24) => e + e + C2H6^+		! f53 * Bolsig+ C2H6(v24) -> C2H6^+
e + C2H6(v13) => e + e + C2H6^+		! f53 * Bolsig+ C2H6(v13) -> C2H6^+
e + C2H6 => e + e + H + C2H5^+		! f54 * Bolsig+ C2H6 -> H C2H5^+
e + C2H6(v24) => e + e + H + C2H5^+		! f54 * Bolsig+ C2H6(v24) -> H C2H5^+
e + C2H6(v13) => e + e + H + C2H5^+		! f54 * Bolsig+ C2H6(v13) -> H C2H5^+
e + C2H6 => e + e + H2 + C2H4^+		! f55 * Bolsig+ C2H6 -> H2 C2H4^+
e + C2H6(v24) => e + e + H2 + C2H4^+		! f55 * Bolsig+ C2H6(v24) -> H2 C2H4^+
e + C2H6(v13) => e + e + H2 + C2H4^+		! f55 * Bolsig+ C2H6(v13) -> H2 C2H4^+
e + C2H6 => e + e + H2 + H + C2H3^+		! f56 * Bolsig+ C2H6 -> H2 H C2H3^+
e + C2H6(v24) => e + e + H2 + H + C2H3^+		! f56 * Bolsig+ C2H6(v24) -> H2 H C2H3^+
e + C2H6(v13) => e + e + H2 + H + C2H3^+		! f56 * Bolsig+ C2H6(v13) -> H2 H C2H3^+
e + C2H6 => e + e + H2 + H2 + C2H2^+		! f57 * Bolsig+ C2H6 -> H2 H2 C2H2^+
e + C2H6(v24) => e + e + H2 + H2 + C2H2^+		! f57 * Bolsig+ C2H6(v24) -> H2 H2 C2H2^+
e + C2H6(v13) => e + e + H2 + H2 + C2H2^+		! f57 * Bolsig+ C2H6(v13) -> H2 H2 C2H2^+
e + C2H6 => e + e + CH3 + CH3^+		! f58 * Bolsig+ C2H6 -> CH3 CH3^+
e + C2H6(v24) => e + e + CH3 + CH3^+		! f58 * Bolsig+ C2H6(v24) -> CH3 CH3^+
e + C2H6(v13) => e + e + CH3 + CH3^+		! f58 * Bolsig+ C2H6(v13) -> CH3 CH3^+
e + C2H6 => e + e + CH4 + CH2^+		! f59 * Bolsig+ C2H6 -> CH4 CH2^+
e + C2H6(v24) => e + e + CH4 + CH2^+		! f59 * Bolsig+ C2H6(v24) -> CH4 CH2^+
e + C2H6(v13) => e + e + CH4 + CH2^+		! f59 * Bolsig+ C2H6(v13) -> CH4 CH2^+
e + C2H5 => e + e + C2H5^+		! f60 * Bolsig+ C2H5 -> C2H5^+
e + C2H5 => e + e + H + C2H4^+		! f61 * Bolsig+ C2H5 -> H C2H4^+
e + C2H5 => e + e + H2 + C2H3^+		! f62 * Bolsig+ C2H5 -> H2 C2H3^+
e + C2H5 => e + e + H2 + H + C2H2^+		! f63 * Bolsig+ C2H5 -> H2 H C2H2^+
e + C2H5 => e + e + CH2 + CH3^+		! f64 * Bolsig+ C2H5 -> CH2 CH3^+
e + C2H5 => e + e + CH3 + CH2^+		! f65 * Bolsig+ C2H5 -> CH3 CH2^+
e + C2H5 => e + e + CH4 + CH^+		! f66 * Bolsig+ C2H5 -> CH4 CH^+
e + C2H4 => e + e + C2H4^+		! f67 * Bolsig+ C2H4 -> C2H4^+
e + C2H4(v1) => e + e + C2H4^+		! f67 * Bolsig+ C2H4(v1) -> C2H4^+
e + C2H4(v2) => e + e + C2H4^+		! f67 * Bolsig+ C2H4(v2) -> C2H4^+
e + C2H4 => e + e + H + C2H3^+		! f68 * Bolsig+ C2H4 -> H C2H3^+
e + C2H4(v1) => e + e + H + C2H3^+		! f68 * Bolsig+ C2H4(v1) -> H C2H3^+
e + C2H4(v2) => e + e + H + C2H3^+		! f68 * Bolsig+ C2H4(v2) -> H C2H3^+
e + C2H4 => e + e + CH + CH3^+		! f69 * Bolsig+ C2H4 -> CH CH3^+
e + C2H4(v1) => e + e + CH + CH3^+		! f69 * Bolsig+ C2H4(v1) -> CH CH3^+
e + C2H4(v2) => e + e + CH + CH3^+		! f69 * Bolsig+ C2H4(v2) -> CH CH3^+
e + C2H4 => e + e + CH2 + CH2^+		! f70 * Bolsig+ C2H4 -> CH2 CH2^+
e + C2H4(v1) => e + e + CH2 + CH2^+		! f70 * Bolsig+ C2H4(v1) -> CH2 CH2^+
e + C2H4(v2) => e + e + CH2 + CH2^+		! f70 * Bolsig+ C2H4(v2) -> CH2 CH2^+
e + C2H4 => e + e + CH3 + CH^+		! f71 * Bolsig+ C2H4 -> CH3 CH^+
e + C2H4(v1) => e + e + CH3 + CH^+		! f71 * Bolsig+ C2H4(v1) -> CH3 CH^+
e + C2H4(v2) => e + e + CH3 + CH^+		! f71 * Bolsig+ C2H4(v2) -> CH3 CH^+
e + C2H3 => e + e + C2H3^+		! f72 * Bolsig+ C2H3 -> C2H3^+
e + C2H3 => e + e + H + C2H2^+		! f73 * Bolsig+ C2H3 -> H C2H2^+
e + C2H3 => e + e + CH + CH2^+		! f74 * Bolsig+ C2H3 -> CH CH2^+
e + C2H3 => e + e + CH2 + CH^+		! f75 * Bolsig+ C2H3 -> CH2 CH^+
e + C2H3 => e + e + C2H2 + H^+		! f76 * Bolsig+ C2H3 -> C2H2 H^+
e + C2H2 => e + e + C2H2^+		! f77 * Bolsig+ C2H2 -> C2H2^+
e + C2H2(v5) => e + e + C2H2^+		! f77 * Bolsig+ C2H2(v5) -> C2H2^+
e + C2H2(v2) => e + e + C2H2^+		! f77 * Bolsig+ C2H2(v2) -> C2H2^+
e + C2H2(v13) => e + e + C2H2^+		! f77 * Bolsig+ C2H2(v13) -> C2H2^+
e + C2H2 => e + e + CH + CH^+		! f78 * Bolsig+ C2H2 -> CH CH^+
e + C2H2(v5) => e + e + CH + CH^+		! f78 * Bolsig+ C2H2(v5) -> CH CH^+
e + C2H2(v2) => e + e + CH + CH^+		! f78 * Bolsig+ C2H2(v2) -> CH CH^+
e + C2H2(v13) => e + e + CH + CH^+		! f78 * Bolsig+ C2H2(v13) -> CH CH^+
e + C3H8 => e + C3H7 + H		! f79 * Bolsig+ C3H8 -> C3H7 H
e + C3H8(v1) => e + C3H7 + H		! f79 * Bolsig+ C3H8(v1) -> C3H7 H
e + C3H8(v2) => e + C3H7 + H		! f79 * Bolsig+ C3H8(v2) -> C3H7 H
e + C3H8 => e + C3H6 + H2		! f80 * Bolsig+ C3H8 -> C3H6 H2
e + C3H8(v1) => e + C3H6 + H2		! f80 * Bolsig+ C3H8(v1) -> C3H6 H2
e + C3H8(v2) => e + C3H6 + H2		! f80 * Bolsig+ C3H8(v2) -> C3H6 H2
e + C3H7 => e + C3H6 + H		! f81 * Bolsig+ C3H7 -> C3H6 H
e + C3H8 => e + e + C3H8^+		! f82 * Bolsig+ C3H8 -> C3H8^+
e + C3H8(v1) => e + e + C3H8^+		! f82 * Bolsig+ C3H8(v1) -> C3H8^+
e + C3H8(v2) => e + e + C3H8^+		! f82 * Bolsig+ C3H8(v2) -> C3H8^+
e + C3H8 => e + e + H + C3H7^+		! f83 * Bolsig+ C3H8 -> H C3H7^+
e + C3H8(v1) => e + e + H + C3H7^+		! f83 * Bolsig+ C3H8(v1) -> H C3H7^+
e + C3H8(v2) => e + e + H + C3H7^+		! f83 * Bolsig+ C3H8(v2) -> H C3H7^+
e + C3H8 => e + e + H2 + C3H6^+		! f84 * Bolsig+ C3H8 -> H2 C3H6^+
e + C3H8(v1) => e + e + H2 + C3H6^+		! f84 * Bolsig+ C3H8(v1) -> H2 C3H6^+
e + C3H8(v2) => e + e + H2 + C3H6^+		! f84 * Bolsig+ C3H8(v2) -> H2 C3H6^+
e + C3H7 => e + e + C3H7^+		! f85 * Bolsig+ C3H7 -> C3H7^+
e + C3H7 => e + e + H + C3H6^+		! f86 * Bolsig+ C3H7 -> H C3H6^+
e + C3H6 => e + e + C3H6^+		! f87 * Bolsig+ C3H6 -> C3H6^+
e + C3H6(v) => e + e + C3H6^+		! f87 * Bolsig+ C3H6(v) -> C3H6^+
e + C3H6 => e + C2H2 + CH4		! f88 * Bolsig+ C3H6 -> C2H2 CH4
e + C3H6(v) => e + C2H2 + CH4		! f88 * Bolsig+ C3H6(v) -> C2H2 CH4
e + C3H6 => e + e + C2H2 + CH4^+		! f89 * Bolsig+ C3H6 -> C2H2 CH4^+
e + C3H6(v) => e + e + C2H2 + CH4^+		! f89 * Bolsig+ C3H6(v) -> C2H2 CH4^+

# Ion Recombination Reaction
e + e + CH^+ => e + CH		! f90 * 1.00d0
e + e + CH2^+ => e + CH2		! f91 * 1.00d0
e + e + CH3^+ => e + CH3		! f92 * 1.00d0
e + e + CH4^+ => e + CH4		! f93 * 1.00d0
e + e + C2H2^+ => e + C2H2		! f94 * 1.00d0
e + e + C2H3^+ => e + C2H3		! f95 * 1.00d0
e + e + C2H4^+ => e + C2H4		! f96 * 1.00d0
e + e + C2H5^+ => e + C2H5		! f97 * 1.00d0
e + e + C2H6^+ => e + C2H6		! f98 * 1.00d0
e + e + C3H6^+ => e + C3H6		! f99 * 1.00d0
e + e + C3H7^+ => e + C3H7		! f100 * 1.00d0
e + e + C3H8^+ => e + C3H8		! f101 * 1.00d0

# Gas Phase Reaction
e + CH4^+ => CH3 + H		! f102 * 1.18d-08 * (300./Tgas)**0.5
e + CH4^+ => CH2 + H + H		! f103 * 2.42d-08 * (300./Tgas)**0.5
e + CH4^+ => CH + H2 + H		! f104 * 1.41d-08 * (300./Tgas)**0.5
e + CH3^+ => CH2 + H		! f105 * 2.25d-08 * (300./Tgas)**0.5
e + CH3^+ => CH + H2		! f106 * 7.88d-09 * (300./Tgas)**0.5
e + CH3^+ => CH + H + H		! f107 * 9.00d-09 * (300./Tgas)**0.5
e + CH3^+ => C + H2 + H		! f108 * 1.69d-08 * (300./Tgas)**0.5
e + CH2^+ => CH + H		! f109 * 1.00d-08 * (300./Tgas)**0.5
e + CH2^+ => C + H2		! f110 * 4.82d-09 * (300./Tgas)**0.5
e + CH2^+ => C + H + H		! f111 * 2.53d-08 * (300./Tgas)**0.5
e + CH^+ => C + H		! f112 * 3.23d-08 * (300./Tgas)**0.42
e + C2H6^+ => C2H5 + H		! f113 * 2.19d-08 * (300./Tgas)**0.71
e + C2H6^+ => C2H4 + H + H		! f114 * 3.36d-08 * (300./Tgas)**0.71
e + C2H5^+ => C2H4 + H		! f115 * 7.70d-09 * (300./Tgas)**0.71
e + C2H5^+ => C2H3 + H + H		! f116 * 1.92d-08 * (300./Tgas)**0.71
e + C2H5^+ => C2H2 + H2 + H		! f117 * 1.60d-08 * (300./Tgas)**0.71
e + C2H5^+ => C2H2 + H + H + H		! f118 * 8.98d-09 * (300./Tgas)**0.71
e + C2H5^+ => CH3 + CH2		! f119 * 9.62d-09 * (300./Tgas)**0.71
e + C2H4^+ => C2H3 + H		! f120 * 8.29d-09 * (300./Tgas)**0.71
e + C2H4^+ => C2H2 + H + H		! f121 * 3.43d-08 * (300./Tgas)**0.71
e + C2H3^+ => C2H2 + H		! f122 * 1.34d-08 * (300./Tgas)**0.71
e + C2H2^+ => CH + CH		! f123 * 4.87d-09 * (300./Tgas)**0.71
e + H2^+ => H + H		! f124 * 3.17d21/(6.022d23 * Te**4.5)
e + H3^+ => H + H2		! f125 * 3.17d21/(6.022d23 * Te**4.5)
H2 + H2^+ => H + H3^+		! f126 * 2.11d-09
C2H6 + CH4^+ => CH4 + H2 + C2H4^+		! f127 * 1.91d-9
C2H6(v24) + CH4^+ => CH4 + H2 + C2H4^+		! f127 * 1.91d-9
C2H6(v13) + CH4^+ => CH4 + H2 + C2H4^+		! f127 * 1.91d-9
C2H4 + CH4^+ => CH3 + C2H5^+		! f128 * 4.23d-10