ELEMENTS
e C H
END

SPECIES
e C CH CH^+ CH2 CH2^+ CH3 CH3^+ CH4 CH4(v13) CH4(v24) CH4^+ C2H2 C2H2(v13) C2H2(v2) C2H2(v5) C2H2^+ C2H3 C2H3^+ C2H4 C2H4(v1) C2H4(v2) C2H4^+ C2H5 C2H5^+
C2H6 C2H6(v13) C2H6(v24) C2H6^+ C3H5 C3H6 C3H6(v) C3H6^+ C3H7 C3H7^+ C3H8 C3H8(v1) C3H8(v2) C3H8^+ C4H9 C4H9H C2H C5H12 H H2 H2^+ H3^+ H^+
END

BOLSIG
CH CH2 CH3 CH4 CH4(v13) CH4(v24) C2H2 C2H2(v13) C2H2(v2) C2H2(v5) C2H3 C2H4 C2H4(v1) C2H4(v2) C2H5 C2H6 C2H6(v13) C2H6(v24) C3H6 C3H6(v) C3H7 C3H8 C3H8(v1) C3H8(v2)
END

REACTIONS
# Gas Constant
$ double precision, parameter :: R = 8.314d-3

# Compensation Parameters
$ double precision, parameter :: f0 = 1.2272d-3
$ double precision, parameter :: f1 = 3.2844d0
$ double precision, parameter :: f2 = 1.1611d-2
$ double precision, parameter :: f3 = 2.9592d0
$ double precision, parameter :: f4 = 5.0454d0
$ double precision, parameter :: f5 = 6.0353d-3
$ double precision, parameter :: f6 = 1.3718d-8
$ double precision, parameter :: f7 = 2.0747d+1
$ double precision, parameter :: f8 = 1.0664d-4
$ double precision, parameter :: f9 = 6.3579d-8
$ double precision, parameter :: f10 = 9.7749d-1
$ double precision, parameter :: f11 = 1.8196d-5
$ double precision, parameter :: f12 = 1.1779d+2
$ double precision, parameter :: f13 = 3.4487d-8
$ double precision, parameter :: f14 = 4.0360d-4
$ double precision, parameter :: f15 = 1.6212d0
$ double precision, parameter :: f16 = 2.0383d-6
$ double precision, parameter :: f17 = 1.8196d+2
$ double precision, parameter :: f18 = 5.0262d-2
$ double precision, parameter :: f19 = 3.4860d0
$ double precision, parameter :: f20 = 2.6702d+1
$ double precision, parameter :: f21 = 1.9617d-5
$ double precision, parameter :: f22 = 6.2159d-1
$ double precision, parameter :: f23 = 1.6228d-2
$ double precision, parameter :: f24 = 4.3266d+2
$ double precision, parameter :: f25 = 1.6249d-3
$ double precision, parameter :: f26 = 6.4598d-8
$ double precision, parameter :: f27 = 5.7038d-6
$ double precision, parameter :: f28 = 1.0387d-3
$ double precision, parameter :: f29 = 7.3120d-4
$ double precision, parameter :: f30 = 9.4728d-8
$ double precision, parameter :: f31 = 2.6321d0
$ double precision, parameter :: f32 = 1.9421d+2
$ double precision, parameter :: f33 = 3.0410d-7
$ double precision, parameter :: f34 = 5.1422d-3
$ double precision, parameter :: f35 = 4.9901d-7
$ double precision, parameter :: f36 = 2.7117d+1
$ double precision, parameter :: f37 = 3.1802d+2
$ double precision, parameter :: f38 = 8.1512d-6
$ double precision, parameter :: f39 = 2.8353d-3
$ double precision, parameter :: f40 = 4.7410d-1
$ double precision, parameter :: f41 = 1.9986d-8
$ double precision, parameter :: f42 = 3.2835d-2
$ double precision, parameter :: f43 = 9.5840d0
$ double precision, parameter :: f44 = 3.8427d+2
$ double precision, parameter :: f45 = 2.6429d-3
$ double precision, parameter :: f46 = 2.7990d+1
$ double precision, parameter :: f47 = 2.6843d-6
$ double precision, parameter :: f48 = 1.8010d-6
$ double precision, parameter :: f49 = 1.2757d-4
$ double precision, parameter :: f50 = 1.6788d+2
$ double precision, parameter :: f51 = 2.2949d-5
$ double precision, parameter :: f52 = 1.0799d-8
$ double precision, parameter :: f53 = 4.0455d-7
$ double precision, parameter :: f54 = 1.4364d-8
$ double precision, parameter :: f55 = 6.0055d-7
$ double precision, parameter :: f56 = 6.1176d-1
$ double precision, parameter :: f57 = 1.0633d-4
$ double precision, parameter :: f58 = 5.2529d+1
$ double precision, parameter :: f59 = 1.0423d-7
$ double precision, parameter :: f60 = 1.5184d-3
$ double precision, parameter :: f61 = 1.7614d0
$ double precision, parameter :: f62 = 2.4764d-8
$ double precision, parameter :: f63 = 7.6056d-8
$ double precision, parameter :: f64 = 1.9150d+1
$ double precision, parameter :: f65 = 3.0937d-1
$ double precision, parameter :: f66 = 1.1183d+1
$ double precision, parameter :: f67 = 1.1422d-4
$ double precision, parameter :: f68 = 2.8297d-7
$ double precision, parameter :: f69 = 8.0062d-4
$ double precision, parameter :: f70 = 1.0214d-6
$ double precision, parameter :: f71 = 3.1013d+2
$ double precision, parameter :: f72 = 1.1021d-6
$ double precision, parameter :: f73 = 5.4723d+2
$ double precision, parameter :: f74 = 3.1686d+2
$ double precision, parameter :: f75 = 1.9475d-1
$ double precision, parameter :: f76 = 7.9662d-8
$ double precision, parameter :: f77 = 3.2460d-7
$ double precision, parameter :: f78 = 1.3844d-6
$ double precision, parameter :: f79 = 3.5816d-3
$ double precision, parameter :: f80 = 1.5276d-6
$ double precision, parameter :: f81 = 6.5120d-4
$ double precision, parameter :: f82 = 6.9644d-2
$ double precision, parameter :: f83 = 1.7685d0
$ double precision, parameter :: f84 = 7.0180d+1
$ double precision, parameter :: f85 = 2.6922d-8
$ double precision, parameter :: f86 = 2.8101d-2
$ double precision, parameter :: f87 = 2.6630d+1
$ double precision, parameter :: f88 = 7.4982d-1
$ double precision, parameter :: f89 = 2.9978d-4
$ double precision, parameter :: f90 = 1.2871d-3
$ double precision, parameter :: f91 = 5.8501d-5
$ double precision, parameter :: f92 = 8.6039d-4
$ double precision, parameter :: f93 = 8.7386d+1
$ double precision, parameter :: f94 = 3.8485d+1
$ double precision, parameter :: f95 = 1.9178d0
$ double precision, parameter :: f96 = 6.4744d-1
$ double precision, parameter :: f97 = 8.3228d0
$ double precision, parameter :: f98 = 5.5453d-4
$ double precision, parameter :: f99 = 3.3410d-4
$ double precision, parameter :: f100 = 6.9014d+2
$ double precision, parameter :: f101 = 3.1038d-1
$ double precision, parameter :: f102 = 3.8210d-5
$ double precision, parameter :: f103 = 2.8010d-8
$ double precision, parameter :: f104 = 8.3127d-7
$ double precision, parameter :: f105 = 1.2237d-6
$ double precision, parameter :: f106 = 1.7372d-1
$ double precision, parameter :: f107 = 3.1477d0
$ double precision, parameter :: f108 = 1.5752d-5
$ double precision, parameter :: f109 = 1.1304d-6
$ double precision, parameter :: f110 = 4.2992d-6
$ double precision, parameter :: f111 = 2.1452d-5
$ double precision, parameter :: f112 = 4.0929d-4
$ double precision, parameter :: f113 = 1.6130d-5
$ double precision, parameter :: f114 = 1.3999d-7
$ double precision, parameter :: f115 = 3.5848d+2
$ double precision, parameter :: f116 = 1.3330d-6
$ double precision, parameter :: f117 = 1.3273d-2
$ double precision, parameter :: f118 = 8.5770d-7
$ double precision, parameter :: f119 = 1.0591d0
$ double precision, parameter :: f120 = 9.9912d-5
$ double precision, parameter :: f121 = 3.9122d-2
$ double precision, parameter :: f122 = 2.7547d-4
$ double precision, parameter :: f123 = 2.3564d-5
$ double precision, parameter :: f124 = 3.7512d-8
$ double precision, parameter :: f125 = 2.0546d-8
$ double precision, parameter :: f126 = 4.2651d+1
$ double precision, parameter :: f127 = 6.5190d-7
$ double precision, parameter :: f128 = 1.9334d-4
$ double precision, parameter :: f129 = 6.5453d-4
$ double precision, parameter :: f130 = 1.3893d+1
$ double precision, parameter :: f131 = 4.5750d+1
$ double precision, parameter :: f132 = 6.9486d-1
$ double precision, parameter :: f133 = 3.1428d-6
$ double precision, parameter :: f134 = 1.7949d-7
$ double precision, parameter :: f135 = 1.7142d-8
$ double precision, parameter :: f136 = 3.0786d-7
$ double precision, parameter :: f137 = 4.5595d-7
$ double precision, parameter :: f138 = 3.2823d-5
$ double precision, parameter :: f139 = 2.0131d-7
$ double precision, parameter :: f140 = 5.2422d-5
$ double precision, parameter :: f141 = 4.0972d-7
$ double precision, parameter :: f142 = 2.1634d-7
$ double precision, parameter :: f143 = 1.2682d+2
$ double precision, parameter :: f144 = 2.7753d+2
$ double precision, parameter :: f145 = 2.7537d-6
$ double precision, parameter :: f146 = 5.9013d-5
$ double precision, parameter :: f147 = 9.6664d-4
$ double precision, parameter :: f148 = 6.3082d-4
$ double precision, parameter :: f149 = 2.1618d+1
$ double precision, parameter :: f150 = 2.8038d-2
$ double precision, parameter :: f151 = 4.4413d+1
$ double precision, parameter :: f152 = 5.8196d-1
$ double precision, parameter :: f153 = 3.1553d0
$ double precision, parameter :: f154 = 1.9736d-3
$ double precision, parameter :: f155 = 1.0730d-1
$ double precision, parameter :: f156 = 2.8667d+1
$ double precision, parameter :: f157 = 1.8483d-6
$ double precision, parameter :: f158 = 6.7113d-8
$ double precision, parameter :: f159 = 1.0864d-2
$ double precision, parameter :: f160 = 4.2831d-6
$ double precision, parameter :: f161 = 1.2888d-8
$ double precision, parameter :: f162 = 1.2669d-4
$ double precision, parameter :: f163 = 1.8187d-5
$ double precision, parameter :: f164 = 3.7555d-7
$ double precision, parameter :: f165 = 1.4218d-5
$ double precision, parameter :: f166 = 1.0639d-2
$ double precision, parameter :: f167 = 1.1541d-1
$ double precision, parameter :: f168 = 2.2538d0
$ double precision, parameter :: f169 = 3.8493d+2
$ double precision, parameter :: f170 = 1.8890d-8
$ double precision, parameter :: f171 = 2.4893d-2
$ double precision, parameter :: f172 = 7.8379d+1
$ double precision, parameter :: f173 = 2.6246d+2
$ double precision, parameter :: f174 = 6.7134d-7
$ double precision, parameter :: f175 = 5.6727d-6
$ double precision, parameter :: f176 = 2.4423d-5
$ double precision, parameter :: f177 = 8.1137d+1
$ double precision, parameter :: f178 = 4.0609d0
$ double precision, parameter :: f179 = 1.0102d-1
$ double precision, parameter :: f180 = 8.2444d+2
$ double precision, parameter :: f181 = 5.9552d-8
$ double precision, parameter :: f182 = 6.5291d-3
$ double precision, parameter :: f183 = 3.1965d0
$ double precision, parameter :: f184 = 1.3715d+1
$ double precision, parameter :: f185 = 4.6640d-3
$ double precision, parameter :: f186 = 1.7936d-2
$ double precision, parameter :: f187 = 6.5618d-5
$ double precision, parameter :: f188 = 7.3381d-4
$ double precision, parameter :: f189 = 2.9261d-3
$ double precision, parameter :: f190 = 2.7818d-2
$ double precision, parameter :: f191 = 2.5240d+2
$ double precision, parameter :: f192 = 6.4400d-2
$ double precision, parameter :: f193 = 2.2678d-3
$ double precision, parameter :: f194 = 9.3964d-8
$ double precision, parameter :: f195 = 6.1291d-2
$ double precision, parameter :: f196 = 2.0689d-1
$ double precision, parameter :: f197 = 2.5962d-4
$ double precision, parameter :: f198 = 1.5339d-5
$ double precision, parameter :: f199 = 9.6675d-5
$ double precision, parameter :: f200 = 4.0990d-7
$ double precision, parameter :: f201 = 5.2283d-4
$ double precision, parameter :: f202 = 3.5627d+1
$ double precision, parameter :: f203 = 4.2592d-6
$ double precision, parameter :: f204 = 1.5733d-8
$ double precision, parameter :: f205 = 7.3879d-2
$ double precision, parameter :: f206 = 1.3808d-1
$ double precision, parameter :: f207 = 4.7908d-6
$ double precision, parameter :: f208 = 1.6448d-3
$ double precision, parameter :: f209 = 8.4870d-8
$ double precision, parameter :: f210 = 1.7646d-4
$ double precision, parameter :: f211 = 1.0177d-4
$ double precision, parameter :: f212 = 4.8074d-2
$ double precision, parameter :: f213 = 1.4145d-3
$ double precision, parameter :: f214 = 2.9281d+2
$ double precision, parameter :: f215 = 9.2918d-1
$ double precision, parameter :: f216 = 4.6770d+2
$ double precision, parameter :: f217 = 5.8598d-5
$ double precision, parameter :: f218 = 3.4822d-3
$ double precision, parameter :: f219 = 1.1376d+2
$ double precision, parameter :: f220 = 6.5380d-4
$ double precision, parameter :: f221 = 1.3584d-3
$ double precision, parameter :: f222 = 1.7070d-6
$ double precision, parameter :: f223 = 7.6981d-6
$ double precision, parameter :: f224 = 1.8093d-3
$ double precision, parameter :: f225 = 8.8745d-1
$ double precision, parameter :: f226 = 6.2539d-2
$ double precision, parameter :: f227 = 6.1681d-8
$ double precision, parameter :: f228 = 1.0994d-4
$ double precision, parameter :: f229 = 1.1231d+1
$ double precision, parameter :: f230 = 1.1042d-5
$ double precision, parameter :: f231 = 1.1029d+2
$ double precision, parameter :: f232 = 9.8370d-2
$ double precision, parameter :: f233 = 6.6170d-4
$ double precision, parameter :: f234 = 4.6872d-5
$ double precision, parameter :: f235 = 1.0744d-8
$ double precision, parameter :: f236 = 4.0122d-2
$ double precision, parameter :: f237 = 7.6966d+1
$ double precision, parameter :: f238 = 1.7467d-4
$ double precision, parameter :: f239 = 2.5262d-3
$ double precision, parameter :: f240 = 1.3396d0
$ double precision, parameter :: f241 = 1.2861d-6
$ double precision, parameter :: f242 = 2.2150d-6
$ double precision, parameter :: f243 = 2.9748d-8
$ double precision, parameter :: f244 = 1.7043d-2
$ double precision, parameter :: f245 = 9.9819d+2
$ double precision, parameter :: f246 = 1.1442d-3
$ double precision, parameter :: f247 = 7.7452d-7
$ double precision, parameter :: f248 = 4.0855d-3
$ double precision, parameter :: f249 = 4.4065d-7
$ double precision, parameter :: f250 = 2.8590d-7
$ double precision, parameter :: f251 = 1.3874d+1
$ double precision, parameter :: f252 = 1.8314d-7
$ double precision, parameter :: f253 = 1.2875d-8
$ double precision, parameter :: f254 = 7.0904d-1
$ double precision, parameter :: f255 = 3.3471d-4
$ double precision, parameter :: f256 = 1.6719d+2
$ double precision, parameter :: f257 = 1.8876d-5
$ double precision, parameter :: f258 = 1.5579d-4
$ double precision, parameter :: f259 = 3.5773d-5
$ double precision, parameter :: f260 = 3.7748d-1
$ double precision, parameter :: f261 = 1.3579d-4
$ double precision, parameter :: f262 = 6.7483d+1
$ double precision, parameter :: f263 = 3.0355d-6
$ double precision, parameter :: f264 = 3.3483d+2
$ double precision, parameter :: f265 = 1.1227d-7
$ double precision, parameter :: f266 = 1.6991d+1
$ double precision, parameter :: f267 = 2.1735d+1
$ double precision, parameter :: f268 = 5.2145d-6
$ double precision, parameter :: f269 = 2.4022d-6
$ double precision, parameter :: f270 = 8.2742d-6
$ double precision, parameter :: f271 = 2.6520d+1
$ double precision, parameter :: f272 = 1.1826d-1
$ double precision, parameter :: f273 = 3.1307d0
$ double precision, parameter :: f274 = 5.4214d-2
$ double precision, parameter :: f275 = 2.3345d-5
$ double precision, parameter :: f276 = 3.1083d-5
$ double precision, parameter :: f277 = 8.0699d-3
$ double precision, parameter :: f278 = 6.1331d+2
$ double precision, parameter :: f279 = 4.7731d-5
$ double precision, parameter :: f280 = 4.5663d-4
$ double precision, parameter :: f281 = 2.5455d+1
$ double precision, parameter :: f282 = 1.3322d+2
$ double precision, parameter :: f283 = 9.9924d-4
$ double precision, parameter :: f284 = 8.4755d-4
$ double precision, parameter :: f285 = 6.1210d+1
$ double precision, parameter :: f286 = 6.3032d0
$ double precision, parameter :: f287 = 6.6201d-7
$ double precision, parameter :: f288 = 3.9237d-3
$ double precision, parameter :: f289 = 2.1795d-4
$ double precision, parameter :: f290 = 8.0754d0
$ double precision, parameter :: f291 = 1.0385d-4
$ double precision, parameter :: f292 = 2.6622d-5
$ double precision, parameter :: f293 = 1.0652d-4
$ double precision, parameter :: f294 = 1.5310d-2
$ double precision, parameter :: f295 = 5.1577d-7
$ double precision, parameter :: f296 = 1.4395d-6
$ double precision, parameter :: f297 = 9.6697d+1
$ double precision, parameter :: f298 = 1.9259d+2
$ double precision, parameter :: f299 = 1.3544d-5
$ double precision, parameter :: f300 = 2.3413d+2
$ double precision, parameter :: f301 = 3.4015d-1
$ double precision, parameter :: f302 = 6.1088d0
$ double precision, parameter :: f303 = 1.5257d-7
$ double precision, parameter :: f304 = 3.8512d-7
$ double precision, parameter :: f305 = 2.0689d-1
$ double precision, parameter :: f306 = 5.1173d-7
$ double precision, parameter :: f307 = 8.1211d-7
$ double precision, parameter :: f308 = 1.6787d+2
$ double precision, parameter :: f309 = 3.9504d-7
$ double precision, parameter :: f310 = 2.4188d0
$ double precision, parameter :: f311 = 4.7213d-7
$ double precision, parameter :: f312 = 2.0809d-5
$ double precision, parameter :: f313 = 1.1409d-4
$ double precision, parameter :: f314 = 8.1861d-8
$ double precision, parameter :: f315 = 1.1758d-1

# Electron Collision Reaction
e + CH4 => e + CH4(v24)		! f0 * Bolsig+ CH4 -> CH4(v24)
e + CH4 => e + CH4(v13)		! f1 * Bolsig+ CH4 -> CH4(v13)
e + C2H6 => e + C2H6(v24)		! f2 * Bolsig+ C2H6 -> C2H6(v24)
e + C2H6 => e + C2H6(v13)		! f3 * Bolsig+ C2H6 -> C2H6(v13)
e + C2H4 => e + C2H4(v1)		! f4 * Bolsig+ C2H4 -> C2H4(v1)
e + C2H4 => e + C2H4(v2)		! f5 * Bolsig+ C2H4 -> C2H4(v2)
e + C2H2 => e + C2H2(v5)		! f6 * Bolsig+ C2H2 -> C2H2(v5)
e + C2H2 => e + C2H2(v2)		! f7 * Bolsig+ C2H2 -> C2H2(v2)
e + C2H2 => e + C2H2(v13)		! f8 * Bolsig+ C2H2 -> C2H2(v13)
e + C3H8 => e + C3H8(v1)		! f9 * Bolsig+ C3H8 -> C3H8(v1)
e + C3H8 => e + C3H8(v2)		! f10 * Bolsig+ C3H8 -> C3H8(v2)
e + C3H6 => e + C3H6(v)		! f11 * Bolsig+ C3H6 -> C3H6(v)
e + CH4 => e + CH3 + H		! f12 * Bolsig+ CH4 -> CH3 H
e + CH4(v24) => e + CH3 + H		! f12 * Bolsig+ CH4(v24) -> CH3 H
e + CH4(v13) => e + CH3 + H		! f12 * Bolsig+ CH4(v13) -> CH3 H
e + CH4 => e + CH2 + H2		! f13 * Bolsig+ CH4 -> CH2 H2
e + CH4(v24) => e + CH2 + H2		! f13 * Bolsig+ CH4(v24) -> CH2 H2
e + CH4(v13) => e + CH2 + H2		! f13 * Bolsig+ CH4(v13) -> CH2 H2
e + CH4 => e + CH + H2 + H		! f14 * Bolsig+ CH4 -> CH H2 H
e + CH4(v24) => e + CH + H2 + H		! f14 * Bolsig+ CH4(v24) -> CH H2 H
e + CH4(v13) => e + CH + H2 + H		! f14 * Bolsig+ CH4(v13) -> CH H2 H
e + CH4 => e + C + H2 + H2		! f15 * Bolsig+ CH4 -> C H2 H2
e + CH4(v24) => e + C + H2 + H2		! f15 * Bolsig+ CH4(v24) -> C H2 H2
e + CH4(v13) => e + C + H2 + H2		! f15 * Bolsig+ CH4(v13) -> C H2 H2
e + CH3 => e + CH2 + H		! f16 * Bolsig+ CH3 -> CH2 H
e + CH3 => e + CH + H2		! f17 * Bolsig+ CH3 -> CH H2
e + CH3 => e + C + H2 + H		! f18 * Bolsig+ CH3 -> C H2 H
e + CH2 => e + CH + H		! f19 * Bolsig+ CH2 -> CH H
e + CH2 => e + C + H2		! f20 * Bolsig+ CH2 -> C H2
e + CH2 => e + C + H + H		! f21 * Bolsig+ CH2 -> C H H
e + CH => e + C + H		! f22 * Bolsig+ CH -> C H
e + CH4 => e + e + CH4^+		! f23 * Bolsig+ CH4 -> CH4^+
e + CH4(v24) => e + e + CH4^+		! f23 * Bolsig+ CH4(v24) -> CH4^+
e + CH4(v13) => e + e + CH4^+		! f23 * Bolsig+ CH4(v13) -> CH4^+
e + CH4 => e + e + H + CH3^+		! f24 * Bolsig+ CH4 -> H CH3^+
e + CH4(v24) => e + e + H + CH3^+		! f24 * Bolsig+ CH4(v24) -> H CH3^+
e + CH4(v13) => e + e + H + CH3^+		! f24 * Bolsig+ CH4(v13) -> H CH3^+
e + CH4 => e + e + H2 + CH2^+		! f25 * Bolsig+ CH4 -> H2 CH2^+
e + CH4(v24) => e + e + H2 + CH2^+		! f25 * Bolsig+ CH4(v24) -> H2 CH2^+
e + CH4(v13) => e + e + H2 + CH2^+		! f25 * Bolsig+ CH4(v13) -> H2 CH2^+
e + CH4 => e + e + H2 + H + CH^+		! f26 * Bolsig+ CH4 -> H2 H CH^+
e + CH4(v24) => e + e + H2 + H + CH^+		! f26 * Bolsig+ CH4(v24) -> H2 H CH^+
e + CH4(v13) => e + e + H2 + H + CH^+		! f26 * Bolsig+ CH4(v13) -> H2 H CH^+
e + CH3 => e + e + CH3^+		! f27 * Bolsig+ CH3 -> CH3^+
e + CH3 => e + e + H + CH2^+		! f28 * Bolsig+ CH3 -> H CH2^+
e + CH3 => e + e + H2 + CH^+		! f29 * Bolsig+ CH3 -> H2 CH^+
e + CH2 => e + e + CH2^+		! f30 * Bolsig+ CH2 -> CH2^+
e + CH2 => e + e + H + CH^+		! f31 * Bolsig+ CH2 -> H CH^+
e + CH => e + e + CH^+		! f32 * Bolsig+ CH -> CH^+
e + C2H6 => e + C2H5 + H		! f33 * Bolsig+ C2H6 -> C2H5 H
e + C2H6(v24) => e + C2H5 + H		! f33 * Bolsig+ C2H6(v24) -> C2H5 H
e + C2H6(v13) => e + C2H5 + H		! f33 * Bolsig+ C2H6(v13) -> C2H5 H
e + C2H6 => e + C2H4 + H2		! f34 * Bolsig+ C2H6 -> C2H4 H2
e + C2H6(v24) => e + C2H4 + H2		! f34 * Bolsig+ C2H6(v24) -> C2H4 H2
e + C2H6(v13) => e + C2H4 + H2		! f34 * Bolsig+ C2H6(v13) -> C2H4 H2
e + C2H6 => e + C2H3 + H2 + H		! f35 * Bolsig+ C2H6 -> C2H3 H2 H
e + C2H6(v24) => e + C2H3 + H2 + H		! f35 * Bolsig+ C2H6(v24) -> C2H3 H2 H
e + C2H6(v13) => e + C2H3 + H2 + H		! f35 * Bolsig+ C2H6(v13) -> C2H3 H2 H
e + C2H6 => e + C2H2 + H2 + H2		! f36 * Bolsig+ C2H6 -> C2H2 H2 H2
e + C2H6(v24) => e + C2H2 + H2 + H2		! f36 * Bolsig+ C2H6(v24) -> C2H2 H2 H2
e + C2H6(v13) => e + C2H2 + H2 + H2		! f36 * Bolsig+ C2H6(v13) -> C2H2 H2 H2
e + C2H6 => e + CH4 + CH2		! f37 * Bolsig+ C2H6 -> CH4 CH2
e + C2H6(v24) => e + CH4 + CH2		! f37 * Bolsig+ C2H6(v24) -> CH4 CH2
e + C2H6(v13) => e + CH4 + CH2		! f37 * Bolsig+ C2H6(v13) -> CH4 CH2
e + C2H6 => e + CH3 + CH3		! f38 * Bolsig+ C2H6 -> CH3 CH3
e + C2H6(v24) => e + CH3 + CH3		! f38 * Bolsig+ C2H6(v24) -> CH3 CH3
e + C2H6(v13) => e + CH3 + CH3		! f38 * Bolsig+ C2H6(v13) -> CH3 CH3
e + C2H5 => e + C2H4 + H		! f39 * Bolsig+ C2H5 -> C2H4 H
e + C2H5 => e + C2H3 + H2		! f40 * Bolsig+ C2H5 -> C2H3 H2
e + C2H5 => e + C2H3 + H + H		! f41 * Bolsig+ C2H5 -> C2H3 H H
e + C2H5 => e + C2H2 + H2 + H		! f42 * Bolsig+ C2H5 -> C2H2 H2 H
e + C2H5 => e + CH4 + CH		! f43 * Bolsig+ C2H5 -> CH4 CH
e + C2H5 => e + CH3 + CH2		! f44 * Bolsig+ C2H5 -> CH3 CH2
e + C2H4 => e + C2H3 + H		! f45 * Bolsig+ C2H4 -> C2H3 H
e + C2H4(v1) => e + C2H3 + H		! f45 * Bolsig+ C2H4(v1) -> C2H3 H
e + C2H4(v2) => e + C2H3 + H		! f45 * Bolsig+ C2H4(v2) -> C2H3 H
e + C2H4 => e + C2H2 + H2		! f46 * Bolsig+ C2H4 -> C2H2 H2
e + C2H4(v1) => e + C2H2 + H2		! f46 * Bolsig+ C2H4(v1) -> C2H2 H2
e + C2H4(v2) => e + C2H2 + H2		! f46 * Bolsig+ C2H4(v2) -> C2H2 H2
e + C2H4 => e + C2H2 + H + H		! f47 * Bolsig+ C2H4 -> C2H2 H H
e + C2H4(v1) => e + C2H2 + H + H		! f47 * Bolsig+ C2H4(v1) -> C2H2 H H
e + C2H4(v2) => e + C2H2 + H + H		! f47 * Bolsig+ C2H4(v2) -> C2H2 H H
e + C2H4 => e + CH3 + CH		! f48 * Bolsig+ C2H4 -> CH3 CH
e + C2H4(v1) => e + CH3 + CH		! f48 * Bolsig+ C2H4(v1) -> CH3 CH
e + C2H4(v2) => e + CH3 + CH		! f48 * Bolsig+ C2H4(v2) -> CH3 CH
e + C2H4 => e + CH2 + CH2		! f49 * Bolsig+ C2H4 -> CH2 CH2
e + C2H4(v1) => e + CH2 + CH2		! f49 * Bolsig+ C2H4(v1) -> CH2 CH2
e + C2H4(v2) => e + CH2 + CH2		! f49 * Bolsig+ C2H4(v2) -> CH2 CH2
e + C2H3 => e + C2H2 + H		! f50 * Bolsig+ C2H3 -> C2H2 H
e + C2H3 => e + CH2 + CH		! f51 * Bolsig+ C2H3 -> CH2 CH
e + C2H2 => e + CH + CH		! f52 * Bolsig+ C2H2 -> CH CH
e + C2H2(v5) => e + CH + CH		! f52 * Bolsig+ C2H2(v5) -> CH CH
e + C2H2(v2) => e + CH + CH		! f52 * Bolsig+ C2H2(v2) -> CH CH
e + C2H2(v13) => e + CH + CH		! f52 * Bolsig+ C2H2(v13) -> CH CH
e + C2H6 => e + e + C2H6^+		! f53 * Bolsig+ C2H6 -> C2H6^+
e + C2H6(v24) => e + e + C2H6^+		! f53 * Bolsig+ C2H6(v24) -> C2H6^+
e + C2H6(v13) => e + e + C2H6^+		! f53 * Bolsig+ C2H6(v13) -> C2H6^+
e + C2H6 => e + e + H + C2H5^+		! f54 * Bolsig+ C2H6 -> H C2H5^+
e + C2H6(v24) => e + e + H + C2H5^+		! f54 * Bolsig+ C2H6(v24) -> H C2H5^+
e + C2H6(v13) => e + e + H + C2H5^+		! f54 * Bolsig+ C2H6(v13) -> H C2H5^+
e + C2H6 => e + e + H2 + C2H4^+		! f55 * Bolsig+ C2H6 -> H2 C2H4^+
e + C2H6(v24) => e + e + H2 + C2H4^+		! f55 * Bolsig+ C2H6(v24) -> H2 C2H4^+
e + C2H6(v13) => e + e + H2 + C2H4^+		! f55 * Bolsig+ C2H6(v13) -> H2 C2H4^+
e + C2H6 => e + e + H2 + H + C2H3^+		! f56 * Bolsig+ C2H6 -> H2 H C2H3^+
e + C2H6(v24) => e + e + H2 + H + C2H3^+		! f56 * Bolsig+ C2H6(v24) -> H2 H C2H3^+
e + C2H6(v13) => e + e + H2 + H + C2H3^+		! f56 * Bolsig+ C2H6(v13) -> H2 H C2H3^+
e + C2H6 => e + e + H2 + H2 + C2H2^+		! f57 * Bolsig+ C2H6 -> H2 H2 C2H2^+
e + C2H6(v24) => e + e + H2 + H2 + C2H2^+		! f57 * Bolsig+ C2H6(v24) -> H2 H2 C2H2^+
e + C2H6(v13) => e + e + H2 + H2 + C2H2^+		! f57 * Bolsig+ C2H6(v13) -> H2 H2 C2H2^+
e + C2H6 => e + e + CH3 + CH3^+		! f58 * Bolsig+ C2H6 -> CH3 CH3^+
e + C2H6(v24) => e + e + CH3 + CH3^+		! f58 * Bolsig+ C2H6(v24) -> CH3 CH3^+
e + C2H6(v13) => e + e + CH3 + CH3^+		! f58 * Bolsig+ C2H6(v13) -> CH3 CH3^+
e + C2H6 => e + e + CH4 + CH2^+		! f59 * Bolsig+ C2H6 -> CH4 CH2^+
e + C2H6(v24) => e + e + CH4 + CH2^+		! f59 * Bolsig+ C2H6(v24) -> CH4 CH2^+
e + C2H6(v13) => e + e + CH4 + CH2^+		! f59 * Bolsig+ C2H6(v13) -> CH4 CH2^+
e + C2H5 => e + e + C2H5^+		! f60 * Bolsig+ C2H5 -> C2H5^+
e + C2H5 => e + e + H + C2H4^+		! f61 * Bolsig+ C2H5 -> H C2H4^+
e + C2H5 => e + e + H2 + C2H3^+		! f62 * Bolsig+ C2H5 -> H2 C2H3^+
e + C2H5 => e + e + H2 + H + C2H2^+		! f63 * Bolsig+ C2H5 -> H2 H C2H2^+
e + C2H5 => e + e + CH2 + CH3^+		! f64 * Bolsig+ C2H5 -> CH2 CH3^+
e + C2H5 => e + e + CH3 + CH2^+		! f65 * Bolsig+ C2H5 -> CH3 CH2^+
e + C2H5 => e + e + CH4 + CH^+		! f66 * Bolsig+ C2H5 -> CH4 CH^+
e + C2H4 => e + e + C2H4^+		! f67 * Bolsig+ C2H4 -> C2H4^+
e + C2H4(v1) => e + e + C2H4^+		! f67 * Bolsig+ C2H4(v1) -> C2H4^+
e + C2H4(v2) => e + e + C2H4^+		! f67 * Bolsig+ C2H4(v2) -> C2H4^+
e + C2H4 => e + e + H + C2H3^+		! f68 * Bolsig+ C2H4 -> H C2H3^+
e + C2H4(v1) => e + e + H + C2H3^+		! f68 * Bolsig+ C2H4(v1) -> H C2H3^+
e + C2H4(v2) => e + e + H + C2H3^+		! f68 * Bolsig+ C2H4(v2) -> H C2H3^+
e + C2H4 => e + e + CH + CH3^+		! f69 * Bolsig+ C2H4 -> CH CH3^+
e + C2H4(v1) => e + e + CH + CH3^+		! f69 * Bolsig+ C2H4(v1) -> CH CH3^+
e + C2H4(v2) => e + e + CH + CH3^+		! f69 * Bolsig+ C2H4(v2) -> CH CH3^+
e + C2H4 => e + e + CH2 + CH2^+		! f70 * Bolsig+ C2H4 -> CH2 CH2^+
e + C2H4(v1) => e + e + CH2 + CH2^+		! f70 * Bolsig+ C2H4(v1) -> CH2 CH2^+
e + C2H4(v2) => e + e + CH2 + CH2^+		! f70 * Bolsig+ C2H4(v2) -> CH2 CH2^+
e + C2H4 => e + e + CH3 + CH^+		! f71 * Bolsig+ C2H4 -> CH3 CH^+
e + C2H4(v1) => e + e + CH3 + CH^+		! f71 * Bolsig+ C2H4(v1) -> CH3 CH^+
e + C2H4(v2) => e + e + CH3 + CH^+		! f71 * Bolsig+ C2H4(v2) -> CH3 CH^+
e + C2H3 => e + e + C2H3^+		! f72 * Bolsig+ C2H3 -> C2H3^+
e + C2H3 => e + e + H + C2H2^+		! f73 * Bolsig+ C2H3 -> H C2H2^+
e + C2H3 => e + e + CH + CH2^+		! f74 * Bolsig+ C2H3 -> CH CH2^+
e + C2H3 => e + e + CH2 + CH^+		! f75 * Bolsig+ C2H3 -> CH2 CH^+
e + C2H3 => e + e + C2H2 + H^+		! f76 * Bolsig+ C2H3 -> C2H2 H^+
e + C2H2 => e + e + C2H2^+		! f77 * Bolsig+ C2H2 -> C2H2^+
e + C2H2(v5) => e + e + C2H2^+		! f77 * Bolsig+ C2H2(v5) -> C2H2^+
e + C2H2(v2) => e + e + C2H2^+		! f77 * Bolsig+ C2H2(v2) -> C2H2^+
e + C2H2(v13) => e + e + C2H2^+		! f77 * Bolsig+ C2H2(v13) -> C2H2^+
e + C2H2 => e + e + CH + CH^+		! f78 * Bolsig+ C2H2 -> CH CH^+
e + C2H2(v5) => e + e + CH + CH^+		! f78 * Bolsig+ C2H2(v5) -> CH CH^+
e + C2H2(v2) => e + e + CH + CH^+		! f78 * Bolsig+ C2H2(v2) -> CH CH^+
e + C2H2(v13) => e + e + CH + CH^+		! f78 * Bolsig+ C2H2(v13) -> CH CH^+
e + C3H8 => e + C3H7 + H		! f79 * Bolsig+ C3H8 -> C3H7 H
e + C3H8(v1) => e + C3H7 + H		! f79 * Bolsig+ C3H8(v1) -> C3H7 H
e + C3H8(v2) => e + C3H7 + H		! f79 * Bolsig+ C3H8(v2) -> C3H7 H
e + C3H8 => e + C3H6 + H2		! f80 * Bolsig+ C3H8 -> C3H6 H2
e + C3H8(v1) => e + C3H6 + H2		! f80 * Bolsig+ C3H8(v1) -> C3H6 H2
e + C3H8(v2) => e + C3H6 + H2		! f80 * Bolsig+ C3H8(v2) -> C3H6 H2
e + C3H7 => e + C3H6 + H		! f81 * Bolsig+ C3H7 -> C3H6 H
e + C3H8 => e + e + C3H8^+		! f82 * Bolsig+ C3H8 -> C3H8^+
e + C3H8(v1) => e + e + C3H8^+		! f82 * Bolsig+ C3H8(v1) -> C3H8^+
e + C3H8(v2) => e + e + C3H8^+		! f82 * Bolsig+ C3H8(v2) -> C3H8^+
e + C3H8 => e + e + H + C3H7^+		! f83 * Bolsig+ C3H8 -> H C3H7^+
e + C3H8(v1) => e + e + H + C3H7^+		! f83 * Bolsig+ C3H8(v1) -> H C3H7^+
e + C3H8(v2) => e + e + H + C3H7^+		! f83 * Bolsig+ C3H8(v2) -> H C3H7^+
e + C3H8 => e + e + H2 + C3H6^+		! f84 * Bolsig+ C3H8 -> H2 C3H6^+
e + C3H8(v1) => e + e + H2 + C3H6^+		! f84 * Bolsig+ C3H8(v1) -> H2 C3H6^+
e + C3H8(v2) => e + e + H2 + C3H6^+		! f84 * Bolsig+ C3H8(v2) -> H2 C3H6^+
e + C3H7 => e + e + C3H7^+		! f85 * Bolsig+ C3H7 -> C3H7^+
e + C3H7 => e + e + H + C3H6^+		! f86 * Bolsig+ C3H7 -> H C3H6^+
e + C3H6 => e + e + C3H6^+		! f87 * Bolsig+ C3H6 -> C3H6^+
e + C3H6(v) => e + e + C3H6^+		! f87 * Bolsig+ C3H6(v) -> C3H6^+
e + C3H6 => e + C2H2 + CH4		! f88 * Bolsig+ C3H6 -> C2H2 CH4
e + C3H6(v) => e + C2H2 + CH4		! f88 * Bolsig+ C3H6(v) -> C2H2 CH4
e + C3H6 => e + e + C2H2 + CH4^+		! f89 * Bolsig+ C3H6 -> C2H2 CH4^+
e + C3H6(v) => e + e + C2H2 + CH4^+		! f89 * Bolsig+ C3H6(v) -> C2H2 CH4^+

# Ion Recombination Reaction
e + e + CH^+ => e + CH		! f90 * 1.00d0
e + e + CH2^+ => e + CH2		! f91 * 1.00d0
e + e + CH3^+ => e + CH3		! f92 * 1.00d0
e + e + CH4^+ => e + CH4		! f93 * 1.00d0
e + e + C2H2^+ => e + C2H2		! f94 * 1.00d0
e + e + C2H3^+ => e + C2H3		! f95 * 1.00d0
e + e + C2H4^+ => e + C2H4		! f96 * 1.00d0
e + e + C2H5^+ => e + C2H5		! f97 * 1.00d0
e + e + C2H6^+ => e + C2H6		! f98 * 1.00d0
e + e + C3H6^+ => e + C3H6		! f99 * 1.00d0
e + e + C3H7^+ => e + C3H7		! f100 * 1.00d0
e + e + C3H8^+ => e + C3H8		! f101 * 1.00d0

# Gas Phase Reaction
e + CH4^+ => CH3 + H		! f102 * 1.18d-08 * (300./Tgas)**0.5
e + CH4^+ => CH2 + H + H		! f103 * 2.42d-08 * (300./Tgas)**0.5
e + CH4^+ => CH + H2 + H		! f104 * 1.41d-08 * (300./Tgas)**0.5
e + CH3^+ => CH2 + H		! f105 * 2.25d-08 * (300./Tgas)**0.5
e + CH3^+ => CH + H2		! f106 * 7.88d-09 * (300./Tgas)**0.5
e + CH3^+ => CH + H + H		! f107 * 9.00d-09 * (300./Tgas)**0.5
e + CH3^+ => C + H2 + H		! f108 * 1.69d-08 * (300./Tgas)**0.5
e + CH2^+ => CH + H		! f109 * 1.00d-08 * (300./Tgas)**0.5
e + CH2^+ => C + H2		! f110 * 4.82d-09 * (300./Tgas)**0.5
e + CH2^+ => C + H + H		! f111 * 2.53d-08 * (300./Tgas)**0.5
e + CH^+ => C + H		! f112 * 3.23d-08 * (300./Tgas)**0.42
e + C2H6^+ => C2H5 + H		! f113 * 2.19d-08 * (300./Tgas)**0.71
e + C2H6^+ => C2H4 + H + H		! f114 * 3.36d-08 * (300./Tgas)**0.71
e + C2H5^+ => C2H4 + H		! f115 * 7.70d-09 * (300./Tgas)**0.71
e + C2H5^+ => C2H3 + H + H		! f116 * 1.92d-08 * (300./Tgas)**0.71
e + C2H5^+ => C2H2 + H2 + H		! f117 * 1.60d-08 * (300./Tgas)**0.71
e + C2H5^+ => C2H2 + H + H + H		! f118 * 8.98d-09 * (300./Tgas)**0.71
e + C2H5^+ => CH3 + CH2		! f119 * 9.62d-09 * (300./Tgas)**0.71
e + C2H4^+ => C2H3 + H		! f120 * 8.29d-09 * (300./Tgas)**0.71
e + C2H4^+ => C2H2 + H + H		! f121 * 3.43d-08 * (300./Tgas)**0.71
e + C2H3^+ => C2H2 + H		! f122 * 1.34d-08 * (300./Tgas)**0.71
e + C2H2^+ => CH + CH		! f123 * 4.87d-09 * (300./Tgas)**0.71
e + H2^+ => H + H		! f124 * 3.17d21/(6.022d23 * Te**4.5)
e + H3^+ => H + H2		! f125 * 3.17d21/(6.022d23 * Te**4.5)
H2 + H2^+ => H + H3^+		! f126 * 2.11d-09
C2H6 + CH4^+ => CH4 + H2 + C2H4^+		! f127 * 1.91d-9
C2H6(v24) + CH4^+ => CH4 + H2 + C2H4^+		! f127 * 1.91d-9
C2H6(v13) + CH4^+ => CH4 + H2 + C2H4^+		! f127 * 1.91d-9
C2H4 + CH4^+ => CH3 + C2H5^+		! f128 * 4.23d-10