ELEMENTS
e C H
END

SPECIES
e C CH CH^+ CH2 CH2^+ CH3 CH3^+ CH4 CH4(v13) CH4(v24) CH4^+ C2H2 C2H2(v13) C2H2(v2) C2H2(v5) C2H2^+ C2H3 C2H3^+ C2H4 C2H4(v1) C2H4(v2) C2H4^+ C2H5 C2H5^+
C2H6 C2H6(v13) C2H6(v24) C2H6^+ C3H5 C3H6 C3H6(v) C3H6^+ C3H7 C3H7^+ C3H8 C3H8(v1) C3H8(v2) C3H8^+ C4H9 C4H9H C2H C5H12 H H2 H2^+ H3^+ H^+
END

BOLSIG
CH CH2 CH3 CH4 CH4(v13) CH4(v24) C2H2 C2H2(v13) C2H2(v2) C2H2(v5) C2H3 C2H4 C2H4(v1) C2H4(v2) C2H5 C2H6 C2H6(v13) C2H6(v24) C3H6 C3H6(v) C3H7 C3H8 C3H8(v1) C3H8(v2)
END

REACTIONS
# Gas Constant
$ double precision, parameter :: R = 8.314d-3

# Compensation Parameters
$ double precision, parameter :: f0 = 1.9446d-2
$ double precision, parameter :: f1 = 8.4122d-2
$ double precision, parameter :: f2 = 2.0144d-4
$ double precision, parameter :: f3 = 4.6664d+2
$ double precision, parameter :: f4 = 1.4636d-5
$ double precision, parameter :: f5 = 6.6452d+1
$ double precision, parameter :: f6 = 1.0349d-2
$ double precision, parameter :: f7 = 1.1956d-1
$ double precision, parameter :: f8 = 1.2663d-7
$ double precision, parameter :: f9 = 2.9029d+1
$ double precision, parameter :: f10 = 9.7158d+2
$ double precision, parameter :: f11 = 1.2578d-2
$ double precision, parameter :: f12 = 8.9491d-2
$ double precision, parameter :: f13 = 2.1123d+1
$ double precision, parameter :: f14 = 1.9320d-7
$ double precision, parameter :: f15 = 6.1481d-5
$ double precision, parameter :: f16 = 8.5707d+2
$ double precision, parameter :: f17 = 3.8216d-5
$ double precision, parameter :: f18 = 1.9545d-5
$ double precision, parameter :: f19 = 4.9119d-8
$ double precision, parameter :: f20 = 2.0089d-8
$ double precision, parameter :: f21 = 2.1651d-6
$ double precision, parameter :: f22 = 5.2109d-3
$ double precision, parameter :: f23 = 2.8832d-5
$ double precision, parameter :: f24 = 1.6132d-7
$ double precision, parameter :: f25 = 7.2794d-6
$ double precision, parameter :: f26 = 8.5550d+2
$ double precision, parameter :: f27 = 4.0212d-7
$ double precision, parameter :: f28 = 3.9401d-6
$ double precision, parameter :: f29 = 5.9617d-2
$ double precision, parameter :: f30 = 1.1786d-1
$ double precision, parameter :: f31 = 5.6155d-8
$ double precision, parameter :: f32 = 5.8072d0
$ double precision, parameter :: f33 = 1.1184d-5
$ double precision, parameter :: f34 = 4.7904d-6
$ double precision, parameter :: f35 = 9.0953d-4
$ double precision, parameter :: f36 = 9.4371d+1
$ double precision, parameter :: f37 = 1.0095d-5
$ double precision, parameter :: f38 = 1.2417d-3
$ double precision, parameter :: f39 = 1.5658d-5
$ double precision, parameter :: f40 = 1.4454d-6
$ double precision, parameter :: f41 = 5.4322d0
$ double precision, parameter :: f42 = 7.5890d0
$ double precision, parameter :: f43 = 9.6200d-3
$ double precision, parameter :: f44 = 8.5681d-4
$ double precision, parameter :: f45 = 6.3755d-8
$ double precision, parameter :: f46 = 2.6127d-8
$ double precision, parameter :: f47 = 9.0010d-8
$ double precision, parameter :: f48 = 5.0414d-4
$ double precision, parameter :: f49 = 1.1822d+2
$ double precision, parameter :: f50 = 8.6145d-8
$ double precision, parameter :: f51 = 2.7526d+1
$ double precision, parameter :: f52 = 5.9235d+2
$ double precision, parameter :: f53 = 8.7250d-8
$ double precision, parameter :: f54 = 6.0856d-5
$ double precision, parameter :: f55 = 2.3058d-6
$ double precision, parameter :: f56 = 5.1955d-4
$ double precision, parameter :: f57 = 5.4265d-4
$ double precision, parameter :: f58 = 6.1987d-3
$ double precision, parameter :: f59 = 1.5651d-8
$ double precision, parameter :: f60 = 1.2087d+1
$ double precision, parameter :: f61 = 1.9928d-7
$ double precision, parameter :: f62 = 9.7654d-3
$ double precision, parameter :: f63 = 4.5108d-5
$ double precision, parameter :: f64 = 2.1725d-8
$ double precision, parameter :: f65 = 5.7598d-5
$ double precision, parameter :: f66 = 7.4424d-3
$ double precision, parameter :: f67 = 2.6229d+2
$ double precision, parameter :: f68 = 1.7884d0
$ double precision, parameter :: f69 = 7.9691d-2
$ double precision, parameter :: f70 = 1.4193d+1
$ double precision, parameter :: f71 = 5.0367d0
$ double precision, parameter :: f72 = 9.4776d-6
$ double precision, parameter :: f73 = 2.6352d-6
$ double precision, parameter :: f74 = 3.1912d0
$ double precision, parameter :: f75 = 2.0857d-7
$ double precision, parameter :: f76 = 1.6319d-3
$ double precision, parameter :: f77 = 9.3553d-6
$ double precision, parameter :: f78 = 2.8926d-1
$ double precision, parameter :: f79 = 3.6902d-4
$ double precision, parameter :: f80 = 1.9095d-7
$ double precision, parameter :: f81 = 1.3661d-7
$ double precision, parameter :: f82 = 4.6362d-1
$ double precision, parameter :: f83 = 1.0152d-2
$ double precision, parameter :: f84 = 7.4097d0
$ double precision, parameter :: f85 = 8.8641d0
$ double precision, parameter :: f86 = 7.3047d-7
$ double precision, parameter :: f87 = 1.2318d-1
$ double precision, parameter :: f88 = 1.3755d-1
$ double precision, parameter :: f89 = 1.8047d-7
$ double precision, parameter :: f90 = 7.1886d-2
$ double precision, parameter :: f91 = 1.5637d-5
$ double precision, parameter :: f92 = 1.5082d-7
$ double precision, parameter :: f93 = 4.1162d-7
$ double precision, parameter :: f94 = 8.9190d-3
$ double precision, parameter :: f95 = 7.7891d-2
$ double precision, parameter :: f96 = 9.0786d+2
$ double precision, parameter :: f97 = 1.0226d0
$ double precision, parameter :: f98 = 7.1676d+2
$ double precision, parameter :: f99 = 2.4931d0
$ double precision, parameter :: f100 = 9.1375d-2
$ double precision, parameter :: f101 = 2.2221d-5
$ double precision, parameter :: f102 = 5.3259d-1
$ double precision, parameter :: f103 = 5.0768d+2
$ double precision, parameter :: f104 = 2.4424d-3
$ double precision, parameter :: f105 = 1.4255d+1
$ double precision, parameter :: f106 = 3.4992d-1
$ double precision, parameter :: f107 = 1.3745d-3
$ double precision, parameter :: f108 = 1.5892d-8
$ double precision, parameter :: f109 = 5.8467d-8
$ double precision, parameter :: f110 = 7.8433d+2
$ double precision, parameter :: f111 = 2.0570d-4
$ double precision, parameter :: f112 = 1.5476d-2
$ double precision, parameter :: f113 = 4.7570d-4
$ double precision, parameter :: f114 = 1.6085d+2
$ double precision, parameter :: f115 = 3.1552d-6
$ double precision, parameter :: f116 = 1.9715d-4
$ double precision, parameter :: f117 = 2.6102d-2
$ double precision, parameter :: f118 = 1.3162d-2
$ double precision, parameter :: f119 = 6.4933d-2
$ double precision, parameter :: f120 = 1.3944d-3
$ double precision, parameter :: f121 = 1.3177d-2
$ double precision, parameter :: f122 = 3.3655d-6
$ double precision, parameter :: f123 = 1.7601d-7
$ double precision, parameter :: f124 = 1.1481d-3
$ double precision, parameter :: f125 = 2.2953d-5
$ double precision, parameter :: f126 = 1.9570d-4
$ double precision, parameter :: f127 = 2.7383d-6
$ double precision, parameter :: f128 = 1.2830d-8
$ double precision, parameter :: f129 = 7.7283d-7
$ double precision, parameter :: f130 = 1.0914d-5
$ double precision, parameter :: f131 = 3.5542d-1
$ double precision, parameter :: f132 = 4.6340d-5
$ double precision, parameter :: f133 = 3.9220d-7
$ double precision, parameter :: f134 = 1.0917d-3
$ double precision, parameter :: f135 = 2.2618d-7
$ double precision, parameter :: f136 = 3.0288d-2
$ double precision, parameter :: f137 = 5.7555d+2
$ double precision, parameter :: f138 = 1.6017d+1
$ double precision, parameter :: f139 = 3.8158d-6
$ double precision, parameter :: f140 = 8.7614d-1
$ double precision, parameter :: f141 = 9.4841d-1
$ double precision, parameter :: f142 = 1.9173d-8
$ double precision, parameter :: f143 = 4.8158d-6
$ double precision, parameter :: f144 = 6.6321d-7
$ double precision, parameter :: f145 = 1.4986d0
$ double precision, parameter :: f146 = 6.4589d-2
$ double precision, parameter :: f147 = 3.5612d-8
$ double precision, parameter :: f148 = 6.9041d+2
$ double precision, parameter :: f149 = 1.5295d-1
$ double precision, parameter :: f150 = 8.6102d+1
$ double precision, parameter :: f151 = 1.0422d+2
$ double precision, parameter :: f152 = 1.8166d+1
$ double precision, parameter :: f153 = 1.2012d+2
$ double precision, parameter :: f154 = 2.0950d+2
$ double precision, parameter :: f155 = 3.0385d-7
$ double precision, parameter :: f156 = 8.7831d-5
$ double precision, parameter :: f157 = 2.5185d-3
$ double precision, parameter :: f158 = 7.3145d-5
$ double precision, parameter :: f159 = 2.6892d-2
$ double precision, parameter :: f160 = 6.8984d0
$ double precision, parameter :: f161 = 2.4861d-7
$ double precision, parameter :: f162 = 5.3323d+1
$ double precision, parameter :: f163 = 6.9267d-1
$ double precision, parameter :: f164 = 9.9552d-2
$ double precision, parameter :: f165 = 1.4402d-5
$ double precision, parameter :: f166 = 1.0029d+2
$ double precision, parameter :: f167 = 2.2660d-7
$ double precision, parameter :: f168 = 5.0293d-2
$ double precision, parameter :: f169 = 2.2486d+2
$ double precision, parameter :: f170 = 3.5040d+1
$ double precision, parameter :: f171 = 8.3927d-6
$ double precision, parameter :: f172 = 2.0567d+1
$ double precision, parameter :: f173 = 6.1978d-2
$ double precision, parameter :: f174 = 8.2609d-3
$ double precision, parameter :: f175 = 3.4200d-8
$ double precision, parameter :: f176 = 8.6975d-6
$ double precision, parameter :: f177 = 1.0158d-7
$ double precision, parameter :: f178 = 1.6066d0
$ double precision, parameter :: f179 = 4.5184d-6
$ double precision, parameter :: f180 = 1.4526d-2
$ double precision, parameter :: f181 = 1.2289d-2
$ double precision, parameter :: f182 = 3.5150d-8
$ double precision, parameter :: f183 = 4.1125d0
$ double precision, parameter :: f184 = 7.6045d-6
$ double precision, parameter :: f185 = 2.7599d+2
$ double precision, parameter :: f186 = 1.0276d-7
$ double precision, parameter :: f187 = 2.9086d-2
$ double precision, parameter :: f188 = 5.3974d-5
$ double precision, parameter :: f189 = 2.3994d-6
$ double precision, parameter :: f190 = 2.2954d+2
$ double precision, parameter :: f191 = 8.0419d-4
$ double precision, parameter :: f192 = 2.7707d0
$ double precision, parameter :: f193 = 1.6825d-6
$ double precision, parameter :: f194 = 3.1453d0
$ double precision, parameter :: f195 = 5.1551d0
$ double precision, parameter :: f196 = 1.5973d-7
$ double precision, parameter :: f197 = 1.1613d-5
$ double precision, parameter :: f198 = 5.6800d-3
$ double precision, parameter :: f199 = 1.3674d0
$ double precision, parameter :: f200 = 2.2382d-7
$ double precision, parameter :: f201 = 2.2096d+2
$ double precision, parameter :: f202 = 3.9084d-8
$ double precision, parameter :: f203 = 1.7228d-8
$ double precision, parameter :: f204 = 2.6866d-6
$ double precision, parameter :: f205 = 6.0088d-1
$ double precision, parameter :: f206 = 9.1354d+1
$ double precision, parameter :: f207 = 1.0105d-7
$ double precision, parameter :: f208 = 5.5350d-2
$ double precision, parameter :: f209 = 1.3698d-1
$ double precision, parameter :: f210 = 6.1169d-5
$ double precision, parameter :: f211 = 3.1931d-8
$ double precision, parameter :: f212 = 5.1001d-2
$ double precision, parameter :: f213 = 1.5216d-6
$ double precision, parameter :: f214 = 1.4814d+1
$ double precision, parameter :: f215 = 3.8568d0
$ double precision, parameter :: f216 = 9.3310d+1
$ double precision, parameter :: f217 = 1.9437d-7
$ double precision, parameter :: f218 = 9.3874d-7
$ double precision, parameter :: f219 = 5.6384d-5
$ double precision, parameter :: f220 = 2.2382d-3
$ double precision, parameter :: f221 = 1.4211d+1
$ double precision, parameter :: f222 = 4.8311d+2
$ double precision, parameter :: f223 = 1.0166d-1
$ double precision, parameter :: f224 = 1.1223d-3
$ double precision, parameter :: f225 = 6.9858d-2
$ double precision, parameter :: f226 = 6.4749d+2
$ double precision, parameter :: f227 = 1.2255d0
$ double precision, parameter :: f228 = 4.4848d-8
$ double precision, parameter :: f229 = 1.0940d-4
$ double precision, parameter :: f230 = 2.0071d-3
$ double precision, parameter :: f231 = 1.0295d-5
$ double precision, parameter :: f232 = 1.1626d-5
$ double precision, parameter :: f233 = 7.1668d-6
$ double precision, parameter :: f234 = 1.5122d-4
$ double precision, parameter :: f235 = 7.2905d-3
$ double precision, parameter :: f236 = 2.1067d-6
$ double precision, parameter :: f237 = 1.4736d-8
$ double precision, parameter :: f238 = 1.2643d-2
$ double precision, parameter :: f239 = 7.2317d-1
$ double precision, parameter :: f240 = 4.0465d+1
$ double precision, parameter :: f241 = 1.9596d-3
$ double precision, parameter :: f242 = 1.2012d-4
$ double precision, parameter :: f243 = 2.5653d+1
$ double precision, parameter :: f244 = 9.9460d-7
$ double precision, parameter :: f245 = 2.5019d-3
$ double precision, parameter :: f246 = 6.4265d-5
$ double precision, parameter :: f247 = 5.1799d-6
$ double precision, parameter :: f248 = 1.1136d+1
$ double precision, parameter :: f249 = 7.9874d-1
$ double precision, parameter :: f250 = 1.5299d-2
$ double precision, parameter :: f251 = 5.1261d0
$ double precision, parameter :: f252 = 6.4870d-4
$ double precision, parameter :: f253 = 9.5128d-6
$ double precision, parameter :: f254 = 2.6025d+2
$ double precision, parameter :: f255 = 2.4936d-2
$ double precision, parameter :: f256 = 6.8669d-3
$ double precision, parameter :: f257 = 2.7381d+2
$ double precision, parameter :: f258 = 1.1360d-2
$ double precision, parameter :: f259 = 2.7048d+2
$ double precision, parameter :: f260 = 2.9663d-8
$ double precision, parameter :: f261 = 1.6067d-5
$ double precision, parameter :: f262 = 3.2036d-3
$ double precision, parameter :: f263 = 7.8811d-7
$ double precision, parameter :: f264 = 3.2992d-1
$ double precision, parameter :: f265 = 2.3261d-5
$ double precision, parameter :: f266 = 2.1762d0
$ double precision, parameter :: f267 = 6.0771d-1
$ double precision, parameter :: f268 = 1.0726d+1
$ double precision, parameter :: f269 = 8.7456d-1
$ double precision, parameter :: f270 = 4.4688d+2
$ double precision, parameter :: f271 = 7.0354d-3
$ double precision, parameter :: f272 = 1.0994d+2
$ double precision, parameter :: f273 = 8.0440d-6
$ double precision, parameter :: f274 = 6.9267d+2
$ double precision, parameter :: f275 = 3.7736d-3
$ double precision, parameter :: f276 = 1.6260d0
$ double precision, parameter :: f277 = 5.5535d-8
$ double precision, parameter :: f278 = 1.5673d-1
$ double precision, parameter :: f279 = 4.2820d-5
$ double precision, parameter :: f280 = 3.2563d-2
$ double precision, parameter :: f281 = 6.0357d-1
$ double precision, parameter :: f282 = 2.2979d-1
$ double precision, parameter :: f283 = 1.3364d-5
$ double precision, parameter :: f284 = 1.0223d-2
$ double precision, parameter :: f285 = 4.3337d-6
$ double precision, parameter :: f286 = 4.8032d-6
$ double precision, parameter :: f287 = 7.2225d+1
$ double precision, parameter :: f288 = 1.3848d-8
$ double precision, parameter :: f289 = 6.2141d-3
$ double precision, parameter :: f290 = 5.3855d+1
$ double precision, parameter :: f291 = 7.4953d+2
$ double precision, parameter :: f292 = 5.3846d-8
$ double precision, parameter :: f293 = 1.0737d-4
$ double precision, parameter :: f294 = 1.1036d-7
$ double precision, parameter :: f295 = 1.5150d+1
$ double precision, parameter :: f296 = 1.1845d-3
$ double precision, parameter :: f297 = 2.7247d-3
$ double precision, parameter :: f298 = 3.1012d-6
$ double precision, parameter :: f299 = 8.3584d+1
$ double precision, parameter :: f300 = 2.0315d-2
$ double precision, parameter :: f301 = 5.1272d-7
$ double precision, parameter :: f302 = 3.4403d-4
$ double precision, parameter :: f303 = 3.0457d+1
$ double precision, parameter :: f304 = 6.2345d-5
$ double precision, parameter :: f305 = 3.3503d-3
$ double precision, parameter :: f306 = 1.3549d-5
$ double precision, parameter :: f307 = 1.2119d-3
$ double precision, parameter :: f308 = 4.3818d-5
$ double precision, parameter :: f309 = 2.6457d-2
$ double precision, parameter :: f310 = 3.0479d-1
$ double precision, parameter :: f311 = 7.9783d-8
$ double precision, parameter :: f312 = 1.4580d-2
$ double precision, parameter :: f313 = 5.3404d-4
$ double precision, parameter :: f314 = 2.3901d-5
$ double precision, parameter :: f315 = 1.6054d+2

# Electron Collision Reaction
e + CH4 => e + CH4(v24)		! f0 * Bolsig+ CH4 -> CH4(v24)
e + CH4 => e + CH4(v13)		! f1 * Bolsig+ CH4 -> CH4(v13)
e + C2H6 => e + C2H6(v24)		! f2 * Bolsig+ C2H6 -> C2H6(v24)
e + C2H6 => e + C2H6(v13)		! f3 * Bolsig+ C2H6 -> C2H6(v13)
e + C2H4 => e + C2H4(v1)		! f4 * Bolsig+ C2H4 -> C2H4(v1)
e + C2H4 => e + C2H4(v2)		! f5 * Bolsig+ C2H4 -> C2H4(v2)
e + C2H2 => e + C2H2(v5)		! f6 * Bolsig+ C2H2 -> C2H2(v5)
e + C2H2 => e + C2H2(v2)		! f7 * Bolsig+ C2H2 -> C2H2(v2)
e + C2H2 => e + C2H2(v13)		! f8 * Bolsig+ C2H2 -> C2H2(v13)
e + C3H8 => e + C3H8(v1)		! f9 * Bolsig+ C3H8 -> C3H8(v1)
e + C3H8 => e + C3H8(v2)		! f10 * Bolsig+ C3H8 -> C3H8(v2)
e + C3H6 => e + C3H6(v)		! f11 * Bolsig+ C3H6 -> C3H6(v)
e + CH4 => e + CH3 + H		! f12 * Bolsig+ CH4 -> CH3 H
e + CH4(v24) => e + CH3 + H		! f12 * Bolsig+ CH4(v24) -> CH3 H
e + CH4(v13) => e + CH3 + H		! f12 * Bolsig+ CH4(v13) -> CH3 H
e + CH4 => e + CH2 + H2		! f13 * Bolsig+ CH4 -> CH2 H2
e + CH4(v24) => e + CH2 + H2		! f13 * Bolsig+ CH4(v24) -> CH2 H2
e + CH4(v13) => e + CH2 + H2		! f13 * Bolsig+ CH4(v13) -> CH2 H2
e + CH4 => e + CH + H2 + H		! f14 * Bolsig+ CH4 -> CH H2 H
e + CH4(v24) => e + CH + H2 + H		! f14 * Bolsig+ CH4(v24) -> CH H2 H
e + CH4(v13) => e + CH + H2 + H		! f14 * Bolsig+ CH4(v13) -> CH H2 H
e + CH4 => e + C + H2 + H2		! f15 * Bolsig+ CH4 -> C H2 H2
e + CH4(v24) => e + C + H2 + H2		! f15 * Bolsig+ CH4(v24) -> C H2 H2
e + CH4(v13) => e + C + H2 + H2		! f15 * Bolsig+ CH4(v13) -> C H2 H2
e + CH3 => e + CH2 + H		! f16 * Bolsig+ CH3 -> CH2 H
e + CH3 => e + CH + H2		! f17 * Bolsig+ CH3 -> CH H2
e + CH3 => e + C + H2 + H		! f18 * Bolsig+ CH3 -> C H2 H
e + CH2 => e + CH + H		! f19 * Bolsig+ CH2 -> CH H
e + CH2 => e + C + H2		! f20 * Bolsig+ CH2 -> C H2
e + CH2 => e + C + H + H		! f21 * Bolsig+ CH2 -> C H H
e + CH => e + C + H		! f22 * Bolsig+ CH -> C H
e + CH4 => e + e + CH4^+		! f23 * Bolsig+ CH4 -> CH4^+
e + CH4(v24) => e + e + CH4^+		! f23 * Bolsig+ CH4(v24) -> CH4^+
e + CH4(v13) => e + e + CH4^+		! f23 * Bolsig+ CH4(v13) -> CH4^+
e + CH4 => e + e + H + CH3^+		! f24 * Bolsig+ CH4 -> H CH3^+
e + CH4(v24) => e + e + H + CH3^+		! f24 * Bolsig+ CH4(v24) -> H CH3^+
e + CH4(v13) => e + e + H + CH3^+		! f24 * Bolsig+ CH4(v13) -> H CH3^+
e + CH4 => e + e + H2 + CH2^+		! f25 * Bolsig+ CH4 -> H2 CH2^+
e + CH4(v24) => e + e + H2 + CH2^+		! f25 * Bolsig+ CH4(v24) -> H2 CH2^+
e + CH4(v13) => e + e + H2 + CH2^+		! f25 * Bolsig+ CH4(v13) -> H2 CH2^+
e + CH4 => e + e + H2 + H + CH^+		! f26 * Bolsig+ CH4 -> H2 H CH^+
e + CH4(v24) => e + e + H2 + H + CH^+		! f26 * Bolsig+ CH4(v24) -> H2 H CH^+
e + CH4(v13) => e + e + H2 + H + CH^+		! f26 * Bolsig+ CH4(v13) -> H2 H CH^+
e + CH3 => e + e + CH3^+		! f27 * Bolsig+ CH3 -> CH3^+
e + CH3 => e + e + H + CH2^+		! f28 * Bolsig+ CH3 -> H CH2^+
e + CH3 => e + e + H2 + CH^+		! f29 * Bolsig+ CH3 -> H2 CH^+
e + CH2 => e + e + CH2^+		! f30 * Bolsig+ CH2 -> CH2^+
e + CH2 => e + e + H + CH^+		! f31 * Bolsig+ CH2 -> H CH^+
e + CH => e + e + CH^+		! f32 * Bolsig+ CH -> CH^+
e + C2H6 => e + C2H5 + H		! f33 * Bolsig+ C2H6 -> C2H5 H
e + C2H6(v24) => e + C2H5 + H		! f33 * Bolsig+ C2H6(v24) -> C2H5 H
e + C2H6(v13) => e + C2H5 + H		! f33 * Bolsig+ C2H6(v13) -> C2H5 H
e + C2H6 => e + C2H4 + H2		! f34 * Bolsig+ C2H6 -> C2H4 H2
e + C2H6(v24) => e + C2H4 + H2		! f34 * Bolsig+ C2H6(v24) -> C2H4 H2
e + C2H6(v13) => e + C2H4 + H2		! f34 * Bolsig+ C2H6(v13) -> C2H4 H2
e + C2H6 => e + C2H3 + H2 + H		! f35 * Bolsig+ C2H6 -> C2H3 H2 H
e + C2H6(v24) => e + C2H3 + H2 + H		! f35 * Bolsig+ C2H6(v24) -> C2H3 H2 H
e + C2H6(v13) => e + C2H3 + H2 + H		! f35 * Bolsig+ C2H6(v13) -> C2H3 H2 H
e + C2H6 => e + C2H2 + H2 + H2		! f36 * Bolsig+ C2H6 -> C2H2 H2 H2
e + C2H6(v24) => e + C2H2 + H2 + H2		! f36 * Bolsig+ C2H6(v24) -> C2H2 H2 H2
e + C2H6(v13) => e + C2H2 + H2 + H2		! f36 * Bolsig+ C2H6(v13) -> C2H2 H2 H2
e + C2H6 => e + CH4 + CH2		! f37 * Bolsig+ C2H6 -> CH4 CH2
e + C2H6(v24) => e + CH4 + CH2		! f37 * Bolsig+ C2H6(v24) -> CH4 CH2
e + C2H6(v13) => e + CH4 + CH2		! f37 * Bolsig+ C2H6(v13) -> CH4 CH2
e + C2H6 => e + CH3 + CH3		! f38 * Bolsig+ C2H6 -> CH3 CH3
e + C2H6(v24) => e + CH3 + CH3		! f38 * Bolsig+ C2H6(v24) -> CH3 CH3
e + C2H6(v13) => e + CH3 + CH3		! f38 * Bolsig+ C2H6(v13) -> CH3 CH3
e + C2H5 => e + C2H4 + H		! f39 * Bolsig+ C2H5 -> C2H4 H
e + C2H5 => e + C2H3 + H2		! f40 * Bolsig+ C2H5 -> C2H3 H2
e + C2H5 => e + C2H3 + H + H		! f41 * Bolsig+ C2H5 -> C2H3 H H
e + C2H5 => e + C2H2 + H2 + H		! f42 * Bolsig+ C2H5 -> C2H2 H2 H
e + C2H5 => e + CH4 + CH		! f43 * Bolsig+ C2H5 -> CH4 CH
e + C2H5 => e + CH3 + CH2		! f44 * Bolsig+ C2H5 -> CH3 CH2
e + C2H4 => e + C2H3 + H		! f45 * Bolsig+ C2H4 -> C2H3 H
e + C2H4(v1) => e + C2H3 + H		! f45 * Bolsig+ C2H4(v1) -> C2H3 H
e + C2H4(v2) => e + C2H3 + H		! f45 * Bolsig+ C2H4(v2) -> C2H3 H
e + C2H4 => e + C2H2 + H2		! f46 * Bolsig+ C2H4 -> C2H2 H2
e + C2H4(v1) => e + C2H2 + H2		! f46 * Bolsig+ C2H4(v1) -> C2H2 H2
e + C2H4(v2) => e + C2H2 + H2		! f46 * Bolsig+ C2H4(v2) -> C2H2 H2
e + C2H4 => e + C2H2 + H + H		! f47 * Bolsig+ C2H4 -> C2H2 H H
e + C2H4(v1) => e + C2H2 + H + H		! f47 * Bolsig+ C2H4(v1) -> C2H2 H H
e + C2H4(v2) => e + C2H2 + H + H		! f47 * Bolsig+ C2H4(v2) -> C2H2 H H
e + C2H4 => e + CH3 + CH		! f48 * Bolsig+ C2H4 -> CH3 CH
e + C2H4(v1) => e + CH3 + CH		! f48 * Bolsig+ C2H4(v1) -> CH3 CH
e + C2H4(v2) => e + CH3 + CH		! f48 * Bolsig+ C2H4(v2) -> CH3 CH
e + C2H4 => e + CH2 + CH2		! f49 * Bolsig+ C2H4 -> CH2 CH2
e + C2H4(v1) => e + CH2 + CH2		! f49 * Bolsig+ C2H4(v1) -> CH2 CH2
e + C2H4(v2) => e + CH2 + CH2		! f49 * Bolsig+ C2H4(v2) -> CH2 CH2
e + C2H3 => e + C2H2 + H		! f50 * Bolsig+ C2H3 -> C2H2 H
e + C2H3 => e + CH2 + CH		! f51 * Bolsig+ C2H3 -> CH2 CH
e + C2H2 => e + CH + CH		! f52 * Bolsig+ C2H2 -> CH CH
e + C2H2(v5) => e + CH + CH		! f52 * Bolsig+ C2H2(v5) -> CH CH
e + C2H2(v2) => e + CH + CH		! f52 * Bolsig+ C2H2(v2) -> CH CH
e + C2H2(v13) => e + CH + CH		! f52 * Bolsig+ C2H2(v13) -> CH CH
e + C2H6 => e + e + C2H6^+		! f53 * Bolsig+ C2H6 -> C2H6^+
e + C2H6(v24) => e + e + C2H6^+		! f53 * Bolsig+ C2H6(v24) -> C2H6^+
e + C2H6(v13) => e + e + C2H6^+		! f53 * Bolsig+ C2H6(v13) -> C2H6^+
e + C2H6 => e + e + H + C2H5^+		! f54 * Bolsig+ C2H6 -> H C2H5^+
e + C2H6(v24) => e + e + H + C2H5^+		! f54 * Bolsig+ C2H6(v24) -> H C2H5^+
e + C2H6(v13) => e + e + H + C2H5^+		! f54 * Bolsig+ C2H6(v13) -> H C2H5^+
e + C2H6 => e + e + H2 + C2H4^+		! f55 * Bolsig+ C2H6 -> H2 C2H4^+
e + C2H6(v24) => e + e + H2 + C2H4^+		! f55 * Bolsig+ C2H6(v24) -> H2 C2H4^+
e + C2H6(v13) => e + e + H2 + C2H4^+		! f55 * Bolsig+ C2H6(v13) -> H2 C2H4^+
e + C2H6 => e + e + H2 + H + C2H3^+		! f56 * Bolsig+ C2H6 -> H2 H C2H3^+
e + C2H6(v24) => e + e + H2 + H + C2H3^+		! f56 * Bolsig+ C2H6(v24) -> H2 H C2H3^+
e + C2H6(v13) => e + e + H2 + H + C2H3^+		! f56 * Bolsig+ C2H6(v13) -> H2 H C2H3^+
e + C2H6 => e + e + H2 + H2 + C2H2^+		! f57 * Bolsig+ C2H6 -> H2 H2 C2H2^+
e + C2H6(v24) => e + e + H2 + H2 + C2H2^+		! f57 * Bolsig+ C2H6(v24) -> H2 H2 C2H2^+
e + C2H6(v13) => e + e + H2 + H2 + C2H2^+		! f57 * Bolsig+ C2H6(v13) -> H2 H2 C2H2^+
e + C2H6 => e + e + CH3 + CH3^+		! f58 * Bolsig+ C2H6 -> CH3 CH3^+
e + C2H6(v24) => e + e + CH3 + CH3^+		! f58 * Bolsig+ C2H6(v24) -> CH3 CH3^+
e + C2H6(v13) => e + e + CH3 + CH3^+		! f58 * Bolsig+ C2H6(v13) -> CH3 CH3^+
e + C2H6 => e + e + CH4 + CH2^+		! f59 * Bolsig+ C2H6 -> CH4 CH2^+
e + C2H6(v24) => e + e + CH4 + CH2^+		! f59 * Bolsig+ C2H6(v24) -> CH4 CH2^+
e + C2H6(v13) => e + e + CH4 + CH2^+		! f59 * Bolsig+ C2H6(v13) -> CH4 CH2^+
e + C2H5 => e + e + C2H5^+		! f60 * Bolsig+ C2H5 -> C2H5^+
e + C2H5 => e + e + H + C2H4^+		! f61 * Bolsig+ C2H5 -> H C2H4^+
e + C2H5 => e + e + H2 + C2H3^+		! f62 * Bolsig+ C2H5 -> H2 C2H3^+
e + C2H5 => e + e + H2 + H + C2H2^+		! f63 * Bolsig+ C2H5 -> H2 H C2H2^+
e + C2H5 => e + e + CH2 + CH3^+		! f64 * Bolsig+ C2H5 -> CH2 CH3^+
e + C2H5 => e + e + CH3 + CH2^+		! f65 * Bolsig+ C2H5 -> CH3 CH2^+
e + C2H5 => e + e + CH4 + CH^+		! f66 * Bolsig+ C2H5 -> CH4 CH^+
e + C2H4 => e + e + C2H4^+		! f67 * Bolsig+ C2H4 -> C2H4^+
e + C2H4(v1) => e + e + C2H4^+		! f67 * Bolsig+ C2H4(v1) -> C2H4^+
e + C2H4(v2) => e + e + C2H4^+		! f67 * Bolsig+ C2H4(v2) -> C2H4^+
e + C2H4 => e + e + H + C2H3^+		! f68 * Bolsig+ C2H4 -> H C2H3^+
e + C2H4(v1) => e + e + H + C2H3^+		! f68 * Bolsig+ C2H4(v1) -> H C2H3^+
e + C2H4(v2) => e + e + H + C2H3^+		! f68 * Bolsig+ C2H4(v2) -> H C2H3^+
e + C2H4 => e + e + CH + CH3^+		! f69 * Bolsig+ C2H4 -> CH CH3^+
e + C2H4(v1) => e + e + CH + CH3^+		! f69 * Bolsig+ C2H4(v1) -> CH CH3^+
e + C2H4(v2) => e + e + CH + CH3^+		! f69 * Bolsig+ C2H4(v2) -> CH CH3^+
e + C2H4 => e + e + CH2 + CH2^+		! f70 * Bolsig+ C2H4 -> CH2 CH2^+
e + C2H4(v1) => e + e + CH2 + CH2^+		! f70 * Bolsig+ C2H4(v1) -> CH2 CH2^+
e + C2H4(v2) => e + e + CH2 + CH2^+		! f70 * Bolsig+ C2H4(v2) -> CH2 CH2^+
e + C2H4 => e + e + CH3 + CH^+		! f71 * Bolsig+ C2H4 -> CH3 CH^+
e + C2H4(v1) => e + e + CH3 + CH^+		! f71 * Bolsig+ C2H4(v1) -> CH3 CH^+
e + C2H4(v2) => e + e + CH3 + CH^+		! f71 * Bolsig+ C2H4(v2) -> CH3 CH^+
e + C2H3 => e + e + C2H3^+		! f72 * Bolsig+ C2H3 -> C2H3^+
e + C2H3 => e + e + H + C2H2^+		! f73 * Bolsig+ C2H3 -> H C2H2^+
e + C2H3 => e + e + CH + CH2^+		! f74 * Bolsig+ C2H3 -> CH CH2^+
e + C2H3 => e + e + CH2 + CH^+		! f75 * Bolsig+ C2H3 -> CH2 CH^+
e + C2H3 => e + e + C2H2 + H^+		! f76 * Bolsig+ C2H3 -> C2H2 H^+
e + C2H2 => e + e + C2H2^+		! f77 * Bolsig+ C2H2 -> C2H2^+
e + C2H2(v5) => e + e + C2H2^+		! f77 * Bolsig+ C2H2(v5) -> C2H2^+
e + C2H2(v2) => e + e + C2H2^+		! f77 * Bolsig+ C2H2(v2) -> C2H2^+
e + C2H2(v13) => e + e + C2H2^+		! f77 * Bolsig+ C2H2(v13) -> C2H2^+
e + C2H2 => e + e + CH + CH^+		! f78 * Bolsig+ C2H2 -> CH CH^+
e + C2H2(v5) => e + e + CH + CH^+		! f78 * Bolsig+ C2H2(v5) -> CH CH^+
e + C2H2(v2) => e + e + CH + CH^+		! f78 * Bolsig+ C2H2(v2) -> CH CH^+
e + C2H2(v13) => e + e + CH + CH^+		! f78 * Bolsig+ C2H2(v13) -> CH CH^+
e + C3H8 => e + C3H7 + H		! f79 * Bolsig+ C3H8 -> C3H7 H
e + C3H8(v1) => e + C3H7 + H		! f79 * Bolsig+ C3H8(v1) -> C3H7 H
e + C3H8(v2) => e + C3H7 + H		! f79 * Bolsig+ C3H8(v2) -> C3H7 H
e + C3H8 => e + C3H6 + H2		! f80 * Bolsig+ C3H8 -> C3H6 H2
e + C3H8(v1) => e + C3H6 + H2		! f80 * Bolsig+ C3H8(v1) -> C3H6 H2
e + C3H8(v2) => e + C3H6 + H2		! f80 * Bolsig+ C3H8(v2) -> C3H6 H2
e + C3H7 => e + C3H6 + H		! f81 * Bolsig+ C3H7 -> C3H6 H
e + C3H8 => e + e + C3H8^+		! f82 * Bolsig+ C3H8 -> C3H8^+
e + C3H8(v1) => e + e + C3H8^+		! f82 * Bolsig+ C3H8(v1) -> C3H8^+
e + C3H8(v2) => e + e + C3H8^+		! f82 * Bolsig+ C3H8(v2) -> C3H8^+
e + C3H8 => e + e + H + C3H7^+		! f83 * Bolsig+ C3H8 -> H C3H7^+
e + C3H8(v1) => e + e + H + C3H7^+		! f83 * Bolsig+ C3H8(v1) -> H C3H7^+
e + C3H8(v2) => e + e + H + C3H7^+		! f83 * Bolsig+ C3H8(v2) -> H C3H7^+
e + C3H8 => e + e + H2 + C3H6^+		! f84 * Bolsig+ C3H8 -> H2 C3H6^+
e + C3H8(v1) => e + e + H2 + C3H6^+		! f84 * Bolsig+ C3H8(v1) -> H2 C3H6^+
e + C3H8(v2) => e + e + H2 + C3H6^+		! f84 * Bolsig+ C3H8(v2) -> H2 C3H6^+
e + C3H7 => e + e + C3H7^+		! f85 * Bolsig+ C3H7 -> C3H7^+
e + C3H7 => e + e + H + C3H6^+		! f86 * Bolsig+ C3H7 -> H C3H6^+
e + C3H6 => e + e + C3H6^+		! f87 * Bolsig+ C3H6 -> C3H6^+
e + C3H6(v) => e + e + C3H6^+		! f87 * Bolsig+ C3H6(v) -> C3H6^+
e + C3H6 => e + C2H2 + CH4		! f88 * Bolsig+ C3H6 -> C2H2 CH4
e + C3H6(v) => e + C2H2 + CH4		! f88 * Bolsig+ C3H6(v) -> C2H2 CH4
e + C3H6 => e + e + C2H2 + CH4^+		! f89 * Bolsig+ C3H6 -> C2H2 CH4^+
e + C3H6(v) => e + e + C2H2 + CH4^+		! f89 * Bolsig+ C3H6(v) -> C2H2 CH4^+

# Ion Recombination Reaction
e + e + CH^+ => e + CH		! f90 * 1.00d0
e + e + CH2^+ => e + CH2		! f91 * 1.00d0
e + e + CH3^+ => e + CH3		! f92 * 1.00d0
e + e + CH4^+ => e + CH4		! f93 * 1.00d0
e + e + C2H2^+ => e + C2H2		! f94 * 1.00d0
e + e + C2H3^+ => e + C2H3		! f95 * 1.00d0
e + e + C2H4^+ => e + C2H4		! f96 * 1.00d0
e + e + C2H5^+ => e + C2H5		! f97 * 1.00d0
e + e + C2H6^+ => e + C2H6		! f98 * 1.00d0
e + e + C3H6^+ => e + C3H6		! f99 * 1.00d0
e + e + C3H7^+ => e + C3H7		! f100 * 1.00d0
e + e + C3H8^+ => e + C3H8		! f101 * 1.00d0

# Gas Phase Reaction
e + CH4^+ => CH3 + H		! f102 * 1.18d-08 * (300./Tgas)**0.5
e + CH4^+ => CH2 + H + H		! f103 * 2.42d-08 * (300./Tgas)**0.5
e + CH4^+ => CH + H2 + H		! f104 * 1.41d-08 * (300./Tgas)**0.5
e + CH3^+ => CH2 + H		! f105 * 2.25d-08 * (300./Tgas)**0.5
e + CH3^+ => CH + H2		! f106 * 7.88d-09 * (300./Tgas)**0.5
e + CH3^+ => CH + H + H		! f107 * 9.00d-09 * (300./Tgas)**0.5
e + CH3^+ => C + H2 + H		! f108 * 1.69d-08 * (300./Tgas)**0.5
e + CH2^+ => CH + H		! f109 * 1.00d-08 * (300./Tgas)**0.5
e + CH2^+ => C + H2		! f110 * 4.82d-09 * (300./Tgas)**0.5
e + CH2^+ => C + H + H		! f111 * 2.53d-08 * (300./Tgas)**0.5
e + CH^+ => C + H		! f112 * 3.23d-08 * (300./Tgas)**0.42
e + C2H6^+ => C2H5 + H		! f113 * 2.19d-08 * (300./Tgas)**0.71
e + C2H6^+ => C2H4 + H + H		! f114 * 3.36d-08 * (300./Tgas)**0.71
e + C2H5^+ => C2H4 + H		! f115 * 7.70d-09 * (300./Tgas)**0.71
e + C2H5^+ => C2H3 + H + H		! f116 * 1.92d-08 * (300./Tgas)**0.71
e + C2H5^+ => C2H2 + H2 + H		! f117 * 1.60d-08 * (300./Tgas)**0.71
e + C2H5^+ => C2H2 + H + H + H		! f118 * 8.98d-09 * (300./Tgas)**0.71
e + C2H5^+ => CH3 + CH2		! f119 * 9.62d-09 * (300./Tgas)**0.71
e + C2H4^+ => C2H3 + H		! f120 * 8.29d-09 * (300./Tgas)**0.71
e + C2H4^+ => C2H2 + H + H		! f121 * 3.43d-08 * (300./Tgas)**0.71
e + C2H3^+ => C2H2 + H		! f122 * 1.34d-08 * (300./Tgas)**0.71
e + C2H2^+ => CH + CH		! f123 * 4.87d-09 * (300./Tgas)**0.71
e + H2^+ => H + H		! f124 * 3.17d21/(6.022d23 * Te**4.5)
e + H3^+ => H + H2		! f125 * 3.17d21/(6.022d23 * Te**4.5)
H2 + H2^+ => H + H3^+		! f126 * 2.11d-09
C2H6 + CH4^+ => CH4 + H2 + C2H4^+		! f127 * 1.91d-9
C2H6(v24) + CH4^+ => CH4 + H2 + C2H4^+		! f127 * 1.91d-9
C2H6(v13) + CH4^+ => CH4 + H2 + C2H4^+		! f127 * 1.91d-9
C2H4 + CH4^+ => CH3 + C2H5^+		! f128 * 4.23d-10