ELEMENTS
e C H
END

SPECIES
e C CH CH^+ CH2 CH2^+ CH3 CH3^+ CH4 CH4(v13) CH4(v24) CH4^+ C2H2 C2H2(v13) C2H2(v2) C2H2(v5) C2H2^+ C2H3 C2H3^+ C2H4 C2H4(v1) C2H4(v2) C2H4^+ C2H5 C2H5^+
C2H6 C2H6(v13) C2H6(v24) C2H6^+ C3H5 C3H6 C3H6(v) C3H6^+ C3H7 C3H7^+ C3H8 C3H8(v1) C3H8(v2) C3H8^+ C4H9 C4H9H C2H C5H12 H H2 H2^+ H3^+ H^+
END

BOLSIG
CH CH2 CH3 CH4 CH4(v13) CH4(v24) C2H2 C2H2(v13) C2H2(v2) C2H2(v5) C2H3 C2H4 C2H4(v1) C2H4(v2) C2H5 C2H6 C2H6(v13) C2H6(v24) C3H6 C3H6(v) C3H7 C3H8 C3H8(v1) C3H8(v2)
END

REACTIONS
# Gas Constant
$ double precision, parameter :: R = 8.314d-3

# Compensation Parameters
$ double precision, parameter :: f0 = 3.2765d-7
$ double precision, parameter :: f1 = 1.7003d-4
$ double precision, parameter :: f2 = 7.6185d-8
$ double precision, parameter :: f3 = 4.8167d-1
$ double precision, parameter :: f4 = 1.0484d-8
$ double precision, parameter :: f5 = 3.8851d-3
$ double precision, parameter :: f6 = 3.1333d-4
$ double precision, parameter :: f7 = 6.8997d-6
$ double precision, parameter :: f8 = 2.9484d-2
$ double precision, parameter :: f9 = 2.3599d-2
$ double precision, parameter :: f10 = 6.7275d+2
$ double precision, parameter :: f11 = 5.5667d-8
$ double precision, parameter :: f12 = 6.2758d0
$ double precision, parameter :: f13 = 2.2268d0
$ double precision, parameter :: f14 = 3.6092d+1
$ double precision, parameter :: f15 = 6.7445d-6
$ double precision, parameter :: f16 = 3.3442d-6
$ double precision, parameter :: f17 = 1.5856d-2
$ double precision, parameter :: f18 = 6.6868d0
$ double precision, parameter :: f19 = 1.0034d+2
$ double precision, parameter :: f20 = 3.8070d+1
$ double precision, parameter :: f21 = 1.1473d-5
$ double precision, parameter :: f22 = 1.4791d-4
$ double precision, parameter :: f23 = 8.2588d-2
$ double precision, parameter :: f24 = 2.1327d-8
$ double precision, parameter :: f25 = 4.7801d-7
$ double precision, parameter :: f26 = 2.5458d-8
$ double precision, parameter :: f27 = 2.5355d-5
$ double precision, parameter :: f28 = 3.2311d+2
$ double precision, parameter :: f29 = 1.9560d+1
$ double precision, parameter :: f30 = 7.9120d-4
$ double precision, parameter :: f31 = 9.7492d-4
$ double precision, parameter :: f32 = 3.6947d-5
$ double precision, parameter :: f33 = 1.4362d-5
$ double precision, parameter :: f34 = 2.4597d-7
$ double precision, parameter :: f35 = 5.7449d-4
$ double precision, parameter :: f36 = 6.0792d-5
$ double precision, parameter :: f37 = 4.2993d-3
$ double precision, parameter :: f38 = 1.7775d-8
$ double precision, parameter :: f39 = 6.5775d-2
$ double precision, parameter :: f40 = 1.8534d0
$ double precision, parameter :: f41 = 4.9421d-5
$ double precision, parameter :: f42 = 8.9904d+1
$ double precision, parameter :: f43 = 2.9596d-1
$ double precision, parameter :: f44 = 7.3130d-2
$ double precision, parameter :: f45 = 7.4022d-6
$ double precision, parameter :: f46 = 1.6625d-1
$ double precision, parameter :: f47 = 2.9885d-5
$ double precision, parameter :: f48 = 4.0793d-4
$ double precision, parameter :: f49 = 2.5813d-6
$ double precision, parameter :: f50 = 9.6050d+1
$ double precision, parameter :: f51 = 5.9261d+1
$ double precision, parameter :: f52 = 1.9794d+2
$ double precision, parameter :: f53 = 5.6511d-4
$ double precision, parameter :: f54 = 3.7780d0
$ double precision, parameter :: f55 = 1.3551d-2
$ double precision, parameter :: f56 = 1.2221d0
$ double precision, parameter :: f57 = 3.2965d-2
$ double precision, parameter :: f58 = 3.4905d+1
$ double precision, parameter :: f59 = 2.4621d-3
$ double precision, parameter :: f60 = 2.3308d-7
$ double precision, parameter :: f61 = 4.7542d+1
$ double precision, parameter :: f62 = 7.3463d-7
$ double precision, parameter :: f63 = 3.7708d-1
$ double precision, parameter :: f64 = 1.1016d0
$ double precision, parameter :: f65 = 6.5038d-4
$ double precision, parameter :: f66 = 4.5156d-1
$ double precision, parameter :: f67 = 1.5766d-4
$ double precision, parameter :: f68 = 3.0338d-1
$ double precision, parameter :: f69 = 7.8489d-4
$ double precision, parameter :: f70 = 4.2326d-6
$ double precision, parameter :: f71 = 1.5393d-2
$ double precision, parameter :: f72 = 3.1352d-6
$ double precision, parameter :: f73 = 4.6282d-5
$ double precision, parameter :: f74 = 2.6280d-3
$ double precision, parameter :: f75 = 4.6976d0
$ double precision, parameter :: f76 = 8.6169d+2
$ double precision, parameter :: f77 = 4.2121d-4
$ double precision, parameter :: f78 = 5.7860d-6
$ double precision, parameter :: f79 = 2.3737d-7
$ double precision, parameter :: f80 = 1.3230d-8
$ double precision, parameter :: f81 = 2.3050d-8
$ double precision, parameter :: f82 = 7.8634d-4
$ double precision, parameter :: f83 = 1.8893d-1
$ double precision, parameter :: f84 = 1.0642d0
$ double precision, parameter :: f85 = 2.2499d-7
$ double precision, parameter :: f86 = 1.6504d+1
$ double precision, parameter :: f87 = 7.2572d-6
$ double precision, parameter :: f88 = 3.7447d+2
$ double precision, parameter :: f89 = 3.7899d0
$ double precision, parameter :: f90 = 1.3584d-2
$ double precision, parameter :: f91 = 5.0791d-3
$ double precision, parameter :: f92 = 2.0626d-4
$ double precision, parameter :: f93 = 1.0256d-6
$ double precision, parameter :: f94 = 1.5167d-1
$ double precision, parameter :: f95 = 7.4551d-2
$ double precision, parameter :: f96 = 4.6930d-2
$ double precision, parameter :: f97 = 1.4624d-7
$ double precision, parameter :: f98 = 4.7680d-3
$ double precision, parameter :: f99 = 3.6683d-6
$ double precision, parameter :: f100 = 1.2924d-3
$ double precision, parameter :: f101 = 4.0335d-8
$ double precision, parameter :: f102 = 8.0899d+1
$ double precision, parameter :: f103 = 6.9318d-1
$ double precision, parameter :: f104 = 1.0437d-1
$ double precision, parameter :: f105 = 4.6909d-4
$ double precision, parameter :: f106 = 1.0048d-1
$ double precision, parameter :: f107 = 8.6755d-8
$ double precision, parameter :: f108 = 6.6985d0
$ double precision, parameter :: f109 = 5.7433d-2
$ double precision, parameter :: f110 = 1.3925d-3
$ double precision, parameter :: f111 = 1.0543d+1
$ double precision, parameter :: f112 = 6.9516d-8
$ double precision, parameter :: f113 = 2.5390d+1
$ double precision, parameter :: f114 = 9.5856d-8
$ double precision, parameter :: f115 = 5.6235d0
$ double precision, parameter :: f116 = 4.2067d-5
$ double precision, parameter :: f117 = 6.8256d-4
$ double precision, parameter :: f118 = 2.3216d-6
$ double precision, parameter :: f119 = 4.1642d-5
$ double precision, parameter :: f120 = 1.3650d+2
$ double precision, parameter :: f121 = 1.3589d-5
$ double precision, parameter :: f122 = 7.9724d-1
$ double precision, parameter :: f123 = 1.6424d-1
$ double precision, parameter :: f124 = 1.1564d-4
$ double precision, parameter :: f125 = 1.5483d+2
$ double precision, parameter :: f126 = 1.9953d0
$ double precision, parameter :: f127 = 4.2724d0
$ double precision, parameter :: f128 = 5.0076d0
$ double precision, parameter :: f129 = 7.2232d-5
$ double precision, parameter :: f130 = 1.6872d-7
$ double precision, parameter :: f131 = 2.0584d-7
$ double precision, parameter :: f132 = 4.2729d+2
$ double precision, parameter :: f133 = 3.2658d0
$ double precision, parameter :: f134 = 4.1493d+2
$ double precision, parameter :: f135 = 3.8852d-6
$ double precision, parameter :: f136 = 2.1138d-6
$ double precision, parameter :: f137 = 1.2420d-3
$ double precision, parameter :: f138 = 5.6070d0
$ double precision, parameter :: f139 = 7.2422d-5
$ double precision, parameter :: f140 = 1.3859d-3
$ double precision, parameter :: f141 = 1.2571d0
$ double precision, parameter :: f142 = 6.4713d-2
$ double precision, parameter :: f143 = 8.9796d-2
$ double precision, parameter :: f144 = 2.9586d0
$ double precision, parameter :: f145 = 2.2051d-2
$ double precision, parameter :: f146 = 1.2208d-5
$ double precision, parameter :: f147 = 4.3343d+1
$ double precision, parameter :: f148 = 1.8131d-4
$ double precision, parameter :: f149 = 4.9828d-6
$ double precision, parameter :: f150 = 4.0116d-3
$ double precision, parameter :: f151 = 2.7452d-4
$ double precision, parameter :: f152 = 8.8621d-4
$ double precision, parameter :: f153 = 2.1999d-1
$ double precision, parameter :: f154 = 2.0269d-5
$ double precision, parameter :: f155 = 6.7251d-1
$ double precision, parameter :: f156 = 2.5225d+1
$ double precision, parameter :: f157 = 1.6324d0
$ double precision, parameter :: f158 = 5.9289d-6
$ double precision, parameter :: f159 = 2.1899d-3
$ double precision, parameter :: f160 = 1.8064d-8
$ double precision, parameter :: f161 = 5.4732d-1
$ double precision, parameter :: f162 = 7.5596d-6
$ double precision, parameter :: f163 = 3.1459d-6
$ double precision, parameter :: f164 = 1.7509d0
$ double precision, parameter :: f165 = 2.9894d-5
$ double precision, parameter :: f166 = 5.4353d-8
$ double precision, parameter :: f167 = 6.2674d-4
$ double precision, parameter :: f168 = 1.3508d-7
$ double precision, parameter :: f169 = 9.7639d-2
$ double precision, parameter :: f170 = 6.7580d-3
$ double precision, parameter :: f171 = 6.6956d-6
$ double precision, parameter :: f172 = 2.8331d+2
$ double precision, parameter :: f173 = 1.7838d-5
$ double precision, parameter :: f174 = 4.6363d-7
$ double precision, parameter :: f175 = 8.7411d-2
$ double precision, parameter :: f176 = 3.5070d-2
$ double precision, parameter :: f177 = 2.0727d-1
$ double precision, parameter :: f178 = 3.0029d-3
$ double precision, parameter :: f179 = 1.4787d-7
$ double precision, parameter :: f180 = 3.6257d0
$ double precision, parameter :: f181 = 1.5838d-7
$ double precision, parameter :: f182 = 2.6300d-4
$ double precision, parameter :: f183 = 1.7973d+1
$ double precision, parameter :: f184 = 1.2238d-2
$ double precision, parameter :: f185 = 1.7281d-2
$ double precision, parameter :: f186 = 3.3977d-7
$ double precision, parameter :: f187 = 3.7924d-8
$ double precision, parameter :: f188 = 1.1584d+1
$ double precision, parameter :: f189 = 4.2942d-4
$ double precision, parameter :: f190 = 8.8133d-3
$ double precision, parameter :: f191 = 5.7389d-5
$ double precision, parameter :: f192 = 3.0981d-5
$ double precision, parameter :: f193 = 6.4354d-6
$ double precision, parameter :: f194 = 1.3368d0
$ double precision, parameter :: f195 = 1.7265d-5
$ double precision, parameter :: f196 = 7.1001d+1
$ double precision, parameter :: f197 = 6.3931d-3
$ double precision, parameter :: f198 = 3.1530d+2
$ double precision, parameter :: f199 = 3.5023d-4
$ double precision, parameter :: f200 = 8.1137d-4
$ double precision, parameter :: f201 = 9.1080d-1
$ double precision, parameter :: f202 = 1.1971d-6
$ double precision, parameter :: f203 = 3.0466d-7
$ double precision, parameter :: f204 = 3.9448d+1
$ double precision, parameter :: f205 = 5.9199d-8
$ double precision, parameter :: f206 = 1.3339d0
$ double precision, parameter :: f207 = 2.7275d+1
$ double precision, parameter :: f208 = 3.0929d-4
$ double precision, parameter :: f209 = 1.0285d-1
$ double precision, parameter :: f210 = 2.2325d+1
$ double precision, parameter :: f211 = 8.0107d0
$ double precision, parameter :: f212 = 4.8566d-4
$ double precision, parameter :: f213 = 9.2911d+2
$ double precision, parameter :: f214 = 5.2508d-3
$ double precision, parameter :: f215 = 3.7696d-5
$ double precision, parameter :: f216 = 4.1975d+1
$ double precision, parameter :: f217 = 3.1062d+2
$ double precision, parameter :: f218 = 9.1511d-7
$ double precision, parameter :: f219 = 2.1801d-3
$ double precision, parameter :: f220 = 5.0286d-7
$ double precision, parameter :: f221 = 1.0475d+1
$ double precision, parameter :: f222 = 6.5025d-8
$ double precision, parameter :: f223 = 5.3316d+1
$ double precision, parameter :: f224 = 9.5801d+1
$ double precision, parameter :: f225 = 7.4827d-8
$ double precision, parameter :: f226 = 3.6083d-5
$ double precision, parameter :: f227 = 2.1716d-2
$ double precision, parameter :: f228 = 5.9574d+2
$ double precision, parameter :: f229 = 6.6916d+2
$ double precision, parameter :: f230 = 1.7693d-7
$ double precision, parameter :: f231 = 2.0161d+2
$ double precision, parameter :: f232 = 1.5011d-5
$ double precision, parameter :: f233 = 5.8137d-7
$ double precision, parameter :: f234 = 1.1973d-1
$ double precision, parameter :: f235 = 1.8945d+1
$ double precision, parameter :: f236 = 2.6562d-5
$ double precision, parameter :: f237 = 9.0204d+1
$ double precision, parameter :: f238 = 6.7084d-2
$ double precision, parameter :: f239 = 3.7465d-8
$ double precision, parameter :: f240 = 5.4349d-8
$ double precision, parameter :: f241 = 3.6309d-7
$ double precision, parameter :: f242 = 6.2843d-7
$ double precision, parameter :: f243 = 1.7536d-6
$ double precision, parameter :: f244 = 1.1184d-2
$ double precision, parameter :: f245 = 2.5778d-2
$ double precision, parameter :: f246 = 2.8638d-1
$ double precision, parameter :: f247 = 3.1259d-7
$ double precision, parameter :: f248 = 2.2100d-6
$ double precision, parameter :: f249 = 1.1665d0
$ double precision, parameter :: f250 = 6.0000d-3
$ double precision, parameter :: f251 = 1.6128d-7
$ double precision, parameter :: f252 = 3.9256d-5
$ double precision, parameter :: f253 = 6.8012d-1
$ double precision, parameter :: f254 = 1.4801d-2
$ double precision, parameter :: f255 = 1.8988d-8
$ double precision, parameter :: f256 = 2.3168d-1
$ double precision, parameter :: f257 = 2.5103d-2
$ double precision, parameter :: f258 = 2.4537d-8
$ double precision, parameter :: f259 = 1.3605d-7
$ double precision, parameter :: f260 = 5.0690d+2
$ double precision, parameter :: f261 = 3.8985d-4
$ double precision, parameter :: f262 = 3.2950d+2
$ double precision, parameter :: f263 = 9.4263d+1
$ double precision, parameter :: f264 = 1.0661d-1
$ double precision, parameter :: f265 = 3.3054d-8
$ double precision, parameter :: f266 = 3.7203d0
$ double precision, parameter :: f267 = 3.8431d-3
$ double precision, parameter :: f268 = 2.9433d-3
$ double precision, parameter :: f269 = 3.7416d-4
$ double precision, parameter :: f270 = 7.8441d-7
$ double precision, parameter :: f271 = 2.1231d+1
$ double precision, parameter :: f272 = 2.8220d-6
$ double precision, parameter :: f273 = 2.2621d-4
$ double precision, parameter :: f274 = 6.6829d-3
$ double precision, parameter :: f275 = 8.4018d0
$ double precision, parameter :: f276 = 4.7443d+2
$ double precision, parameter :: f277 = 6.4959d-2
$ double precision, parameter :: f278 = 1.9268d-1
$ double precision, parameter :: f279 = 7.1507d-5
$ double precision, parameter :: f280 = 7.6461d-5
$ double precision, parameter :: f281 = 1.6525d-7
$ double precision, parameter :: f282 = 4.7401d+1
$ double precision, parameter :: f283 = 5.1644d-2
$ double precision, parameter :: f284 = 1.9154d+2
$ double precision, parameter :: f285 = 3.2673d-2
$ double precision, parameter :: f286 = 5.8655d-3
$ double precision, parameter :: f287 = 6.9308d-4
$ double precision, parameter :: f288 = 1.8910d0
$ double precision, parameter :: f289 = 1.9645d-3
$ double precision, parameter :: f290 = 5.8938d+2
$ double precision, parameter :: f291 = 2.9181d-7
$ double precision, parameter :: f292 = 6.1874d+2
$ double precision, parameter :: f293 = 1.1825d+2
$ double precision, parameter :: f294 = 3.2535d+2
$ double precision, parameter :: f295 = 1.4017d-1
$ double precision, parameter :: f296 = 6.3569d-7
$ double precision, parameter :: f297 = 1.5428d+2
$ double precision, parameter :: f298 = 2.5415d-1
$ double precision, parameter :: f299 = 1.1477d+2
$ double precision, parameter :: f300 = 1.2308d-3
$ double precision, parameter :: f301 = 2.2752d-6
$ double precision, parameter :: f302 = 6.1213d-7
$ double precision, parameter :: f303 = 1.9619d+1
$ double precision, parameter :: f304 = 4.8214d-1
$ double precision, parameter :: f305 = 3.2320d-7
$ double precision, parameter :: f306 = 3.7125d+1
$ double precision, parameter :: f307 = 3.6057d+2
$ double precision, parameter :: f308 = 5.6854d-8
$ double precision, parameter :: f309 = 2.2026d-8
$ double precision, parameter :: f310 = 7.7742d-3
$ double precision, parameter :: f311 = 1.9938d-3
$ double precision, parameter :: f312 = 1.5040d-2
$ double precision, parameter :: f313 = 4.4903d-7
$ double precision, parameter :: f314 = 4.6062d0
$ double precision, parameter :: f315 = 4.5231d-8

# Electron Collision Reaction
e + CH4 => e + CH4(v24)		! f0 * Bolsig+ CH4 -> CH4(v24)
e + CH4 => e + CH4(v13)		! f1 * Bolsig+ CH4 -> CH4(v13)
e + C2H6 => e + C2H6(v24)		! f2 * Bolsig+ C2H6 -> C2H6(v24)
e + C2H6 => e + C2H6(v13)		! f3 * Bolsig+ C2H6 -> C2H6(v13)
e + C2H4 => e + C2H4(v1)		! f4 * Bolsig+ C2H4 -> C2H4(v1)
e + C2H4 => e + C2H4(v2)		! f5 * Bolsig+ C2H4 -> C2H4(v2)
e + C2H2 => e + C2H2(v5)		! f6 * Bolsig+ C2H2 -> C2H2(v5)
e + C2H2 => e + C2H2(v2)		! f7 * Bolsig+ C2H2 -> C2H2(v2)
e + C2H2 => e + C2H2(v13)		! f8 * Bolsig+ C2H2 -> C2H2(v13)
e + C3H8 => e + C3H8(v1)		! f9 * Bolsig+ C3H8 -> C3H8(v1)
e + C3H8 => e + C3H8(v2)		! f10 * Bolsig+ C3H8 -> C3H8(v2)
e + C3H6 => e + C3H6(v)		! f11 * Bolsig+ C3H6 -> C3H6(v)
e + CH4 => e + CH3 + H		! f12 * Bolsig+ CH4 -> CH3 H
e + CH4(v24) => e + CH3 + H		! f12 * Bolsig+ CH4(v24) -> CH3 H
e + CH4(v13) => e + CH3 + H		! f12 * Bolsig+ CH4(v13) -> CH3 H
e + CH4 => e + CH2 + H2		! f13 * Bolsig+ CH4 -> CH2 H2
e + CH4(v24) => e + CH2 + H2		! f13 * Bolsig+ CH4(v24) -> CH2 H2
e + CH4(v13) => e + CH2 + H2		! f13 * Bolsig+ CH4(v13) -> CH2 H2
e + CH4 => e + CH + H2 + H		! f14 * Bolsig+ CH4 -> CH H2 H
e + CH4(v24) => e + CH + H2 + H		! f14 * Bolsig+ CH4(v24) -> CH H2 H
e + CH4(v13) => e + CH + H2 + H		! f14 * Bolsig+ CH4(v13) -> CH H2 H
e + CH4 => e + C + H2 + H2		! f15 * Bolsig+ CH4 -> C H2 H2
e + CH4(v24) => e + C + H2 + H2		! f15 * Bolsig+ CH4(v24) -> C H2 H2
e + CH4(v13) => e + C + H2 + H2		! f15 * Bolsig+ CH4(v13) -> C H2 H2
e + CH3 => e + CH2 + H		! f16 * Bolsig+ CH3 -> CH2 H
e + CH3 => e + CH + H2		! f17 * Bolsig+ CH3 -> CH H2
e + CH3 => e + C + H2 + H		! f18 * Bolsig+ CH3 -> C H2 H
e + CH2 => e + CH + H		! f19 * Bolsig+ CH2 -> CH H
e + CH2 => e + C + H2		! f20 * Bolsig+ CH2 -> C H2
e + CH2 => e + C + H + H		! f21 * Bolsig+ CH2 -> C H H
e + CH => e + C + H		! f22 * Bolsig+ CH -> C H
e + CH4 => e + e + CH4^+		! f23 * Bolsig+ CH4 -> CH4^+
e + CH4(v24) => e + e + CH4^+		! f23 * Bolsig+ CH4(v24) -> CH4^+
e + CH4(v13) => e + e + CH4^+		! f23 * Bolsig+ CH4(v13) -> CH4^+
e + CH4 => e + e + H + CH3^+		! f24 * Bolsig+ CH4 -> H CH3^+
e + CH4(v24) => e + e + H + CH3^+		! f24 * Bolsig+ CH4(v24) -> H CH3^+
e + CH4(v13) => e + e + H + CH3^+		! f24 * Bolsig+ CH4(v13) -> H CH3^+
e + CH4 => e + e + H2 + CH2^+		! f25 * Bolsig+ CH4 -> H2 CH2^+
e + CH4(v24) => e + e + H2 + CH2^+		! f25 * Bolsig+ CH4(v24) -> H2 CH2^+
e + CH4(v13) => e + e + H2 + CH2^+		! f25 * Bolsig+ CH4(v13) -> H2 CH2^+
e + CH4 => e + e + H2 + H + CH^+		! f26 * Bolsig+ CH4 -> H2 H CH^+
e + CH4(v24) => e + e + H2 + H + CH^+		! f26 * Bolsig+ CH4(v24) -> H2 H CH^+
e + CH4(v13) => e + e + H2 + H + CH^+		! f26 * Bolsig+ CH4(v13) -> H2 H CH^+
e + CH3 => e + e + CH3^+		! f27 * Bolsig+ CH3 -> CH3^+
e + CH3 => e + e + H + CH2^+		! f28 * Bolsig+ CH3 -> H CH2^+
e + CH3 => e + e + H2 + CH^+		! f29 * Bolsig+ CH3 -> H2 CH^+
e + CH2 => e + e + CH2^+		! f30 * Bolsig+ CH2 -> CH2^+
e + CH2 => e + e + H + CH^+		! f31 * Bolsig+ CH2 -> H CH^+
e + CH => e + e + CH^+		! f32 * Bolsig+ CH -> CH^+
e + C2H6 => e + C2H5 + H		! f33 * Bolsig+ C2H6 -> C2H5 H
e + C2H6(v24) => e + C2H5 + H		! f33 * Bolsig+ C2H6(v24) -> C2H5 H
e + C2H6(v13) => e + C2H5 + H		! f33 * Bolsig+ C2H6(v13) -> C2H5 H
e + C2H6 => e + C2H4 + H2		! f34 * Bolsig+ C2H6 -> C2H4 H2
e + C2H6(v24) => e + C2H4 + H2		! f34 * Bolsig+ C2H6(v24) -> C2H4 H2
e + C2H6(v13) => e + C2H4 + H2		! f34 * Bolsig+ C2H6(v13) -> C2H4 H2
e + C2H6 => e + C2H3 + H2 + H		! f35 * Bolsig+ C2H6 -> C2H3 H2 H
e + C2H6(v24) => e + C2H3 + H2 + H		! f35 * Bolsig+ C2H6(v24) -> C2H3 H2 H
e + C2H6(v13) => e + C2H3 + H2 + H		! f35 * Bolsig+ C2H6(v13) -> C2H3 H2 H
e + C2H6 => e + C2H2 + H2 + H2		! f36 * Bolsig+ C2H6 -> C2H2 H2 H2
e + C2H6(v24) => e + C2H2 + H2 + H2		! f36 * Bolsig+ C2H6(v24) -> C2H2 H2 H2
e + C2H6(v13) => e + C2H2 + H2 + H2		! f36 * Bolsig+ C2H6(v13) -> C2H2 H2 H2
e + C2H6 => e + CH4 + CH2		! f37 * Bolsig+ C2H6 -> CH4 CH2
e + C2H6(v24) => e + CH4 + CH2		! f37 * Bolsig+ C2H6(v24) -> CH4 CH2
e + C2H6(v13) => e + CH4 + CH2		! f37 * Bolsig+ C2H6(v13) -> CH4 CH2
e + C2H6 => e + CH3 + CH3		! f38 * Bolsig+ C2H6 -> CH3 CH3
e + C2H6(v24) => e + CH3 + CH3		! f38 * Bolsig+ C2H6(v24) -> CH3 CH3
e + C2H6(v13) => e + CH3 + CH3		! f38 * Bolsig+ C2H6(v13) -> CH3 CH3
e + C2H5 => e + C2H4 + H		! f39 * Bolsig+ C2H5 -> C2H4 H
e + C2H5 => e + C2H3 + H2		! f40 * Bolsig+ C2H5 -> C2H3 H2
e + C2H5 => e + C2H3 + H + H		! f41 * Bolsig+ C2H5 -> C2H3 H H
e + C2H5 => e + C2H2 + H2 + H		! f42 * Bolsig+ C2H5 -> C2H2 H2 H
e + C2H5 => e + CH4 + CH		! f43 * Bolsig+ C2H5 -> CH4 CH
e + C2H5 => e + CH3 + CH2		! f44 * Bolsig+ C2H5 -> CH3 CH2
e + C2H4 => e + C2H3 + H		! f45 * Bolsig+ C2H4 -> C2H3 H
e + C2H4(v1) => e + C2H3 + H		! f45 * Bolsig+ C2H4(v1) -> C2H3 H
e + C2H4(v2) => e + C2H3 + H		! f45 * Bolsig+ C2H4(v2) -> C2H3 H
e + C2H4 => e + C2H2 + H2		! f46 * Bolsig+ C2H4 -> C2H2 H2
e + C2H4(v1) => e + C2H2 + H2		! f46 * Bolsig+ C2H4(v1) -> C2H2 H2
e + C2H4(v2) => e + C2H2 + H2		! f46 * Bolsig+ C2H4(v2) -> C2H2 H2
e + C2H4 => e + C2H2 + H + H		! f47 * Bolsig+ C2H4 -> C2H2 H H
e + C2H4(v1) => e + C2H2 + H + H		! f47 * Bolsig+ C2H4(v1) -> C2H2 H H
e + C2H4(v2) => e + C2H2 + H + H		! f47 * Bolsig+ C2H4(v2) -> C2H2 H H
e + C2H4 => e + CH3 + CH		! f48 * Bolsig+ C2H4 -> CH3 CH
e + C2H4(v1) => e + CH3 + CH		! f48 * Bolsig+ C2H4(v1) -> CH3 CH
e + C2H4(v2) => e + CH3 + CH		! f48 * Bolsig+ C2H4(v2) -> CH3 CH
e + C2H4 => e + CH2 + CH2		! f49 * Bolsig+ C2H4 -> CH2 CH2
e + C2H4(v1) => e + CH2 + CH2		! f49 * Bolsig+ C2H4(v1) -> CH2 CH2
e + C2H4(v2) => e + CH2 + CH2		! f49 * Bolsig+ C2H4(v2) -> CH2 CH2
e + C2H3 => e + C2H2 + H		! f50 * Bolsig+ C2H3 -> C2H2 H
e + C2H3 => e + CH2 + CH		! f51 * Bolsig+ C2H3 -> CH2 CH
e + C2H2 => e + CH + CH		! f52 * Bolsig+ C2H2 -> CH CH
e + C2H2(v5) => e + CH + CH		! f52 * Bolsig+ C2H2(v5) -> CH CH
e + C2H2(v2) => e + CH + CH		! f52 * Bolsig+ C2H2(v2) -> CH CH
e + C2H2(v13) => e + CH + CH		! f52 * Bolsig+ C2H2(v13) -> CH CH
e + C2H6 => e + e + C2H6^+		! f53 * Bolsig+ C2H6 -> C2H6^+
e + C2H6(v24) => e + e + C2H6^+		! f53 * Bolsig+ C2H6(v24) -> C2H6^+
e + C2H6(v13) => e + e + C2H6^+		! f53 * Bolsig+ C2H6(v13) -> C2H6^+
e + C2H6 => e + e + H + C2H5^+		! f54 * Bolsig+ C2H6 -> H C2H5^+
e + C2H6(v24) => e + e + H + C2H5^+		! f54 * Bolsig+ C2H6(v24) -> H C2H5^+
e + C2H6(v13) => e + e + H + C2H5^+		! f54 * Bolsig+ C2H6(v13) -> H C2H5^+
e + C2H6 => e + e + H2 + C2H4^+		! f55 * Bolsig+ C2H6 -> H2 C2H4^+
e + C2H6(v24) => e + e + H2 + C2H4^+		! f55 * Bolsig+ C2H6(v24) -> H2 C2H4^+
e + C2H6(v13) => e + e + H2 + C2H4^+		! f55 * Bolsig+ C2H6(v13) -> H2 C2H4^+
e + C2H6 => e + e + H2 + H + C2H3^+		! f56 * Bolsig+ C2H6 -> H2 H C2H3^+
e + C2H6(v24) => e + e + H2 + H + C2H3^+		! f56 * Bolsig+ C2H6(v24) -> H2 H C2H3^+
e + C2H6(v13) => e + e + H2 + H + C2H3^+		! f56 * Bolsig+ C2H6(v13) -> H2 H C2H3^+
e + C2H6 => e + e + H2 + H2 + C2H2^+		! f57 * Bolsig+ C2H6 -> H2 H2 C2H2^+
e + C2H6(v24) => e + e + H2 + H2 + C2H2^+		! f57 * Bolsig+ C2H6(v24) -> H2 H2 C2H2^+
e + C2H6(v13) => e + e + H2 + H2 + C2H2^+		! f57 * Bolsig+ C2H6(v13) -> H2 H2 C2H2^+
e + C2H6 => e + e + CH3 + CH3^+		! f58 * Bolsig+ C2H6 -> CH3 CH3^+
e + C2H6(v24) => e + e + CH3 + CH3^+		! f58 * Bolsig+ C2H6(v24) -> CH3 CH3^+
e + C2H6(v13) => e + e + CH3 + CH3^+		! f58 * Bolsig+ C2H6(v13) -> CH3 CH3^+
e + C2H6 => e + e + CH4 + CH2^+		! f59 * Bolsig+ C2H6 -> CH4 CH2^+
e + C2H6(v24) => e + e + CH4 + CH2^+		! f59 * Bolsig+ C2H6(v24) -> CH4 CH2^+
e + C2H6(v13) => e + e + CH4 + CH2^+		! f59 * Bolsig+ C2H6(v13) -> CH4 CH2^+
e + C2H5 => e + e + C2H5^+		! f60 * Bolsig+ C2H5 -> C2H5^+
e + C2H5 => e + e + H + C2H4^+		! f61 * Bolsig+ C2H5 -> H C2H4^+
e + C2H5 => e + e + H2 + C2H3^+		! f62 * Bolsig+ C2H5 -> H2 C2H3^+
e + C2H5 => e + e + H2 + H + C2H2^+		! f63 * Bolsig+ C2H5 -> H2 H C2H2^+
e + C2H5 => e + e + CH2 + CH3^+		! f64 * Bolsig+ C2H5 -> CH2 CH3^+
e + C2H5 => e + e + CH3 + CH2^+		! f65 * Bolsig+ C2H5 -> CH3 CH2^+
e + C2H5 => e + e + CH4 + CH^+		! f66 * Bolsig+ C2H5 -> CH4 CH^+
e + C2H4 => e + e + C2H4^+		! f67 * Bolsig+ C2H4 -> C2H4^+
e + C2H4(v1) => e + e + C2H4^+		! f67 * Bolsig+ C2H4(v1) -> C2H4^+
e + C2H4(v2) => e + e + C2H4^+		! f67 * Bolsig+ C2H4(v2) -> C2H4^+
e + C2H4 => e + e + H + C2H3^+		! f68 * Bolsig+ C2H4 -> H C2H3^+
e + C2H4(v1) => e + e + H + C2H3^+		! f68 * Bolsig+ C2H4(v1) -> H C2H3^+
e + C2H4(v2) => e + e + H + C2H3^+		! f68 * Bolsig+ C2H4(v2) -> H C2H3^+
e + C2H4 => e + e + CH + CH3^+		! f69 * Bolsig+ C2H4 -> CH CH3^+
e + C2H4(v1) => e + e + CH + CH3^+		! f69 * Bolsig+ C2H4(v1) -> CH CH3^+
e + C2H4(v2) => e + e + CH + CH3^+		! f69 * Bolsig+ C2H4(v2) -> CH CH3^+
e + C2H4 => e + e + CH2 + CH2^+		! f70 * Bolsig+ C2H4 -> CH2 CH2^+
e + C2H4(v1) => e + e + CH2 + CH2^+		! f70 * Bolsig+ C2H4(v1) -> CH2 CH2^+
e + C2H4(v2) => e + e + CH2 + CH2^+		! f70 * Bolsig+ C2H4(v2) -> CH2 CH2^+
e + C2H4 => e + e + CH3 + CH^+		! f71 * Bolsig+ C2H4 -> CH3 CH^+
e + C2H4(v1) => e + e + CH3 + CH^+		! f71 * Bolsig+ C2H4(v1) -> CH3 CH^+
e + C2H4(v2) => e + e + CH3 + CH^+		! f71 * Bolsig+ C2H4(v2) -> CH3 CH^+
e + C2H3 => e + e + C2H3^+		! f72 * Bolsig+ C2H3 -> C2H3^+
e + C2H3 => e + e + H + C2H2^+		! f73 * Bolsig+ C2H3 -> H C2H2^+
e + C2H3 => e + e + CH + CH2^+		! f74 * Bolsig+ C2H3 -> CH CH2^+
e + C2H3 => e + e + CH2 + CH^+		! f75 * Bolsig+ C2H3 -> CH2 CH^+
e + C2H3 => e + e + C2H2 + H^+		! f76 * Bolsig+ C2H3 -> C2H2 H^+
e + C2H2 => e + e + C2H2^+		! f77 * Bolsig+ C2H2 -> C2H2^+
e + C2H2(v5) => e + e + C2H2^+		! f77 * Bolsig+ C2H2(v5) -> C2H2^+
e + C2H2(v2) => e + e + C2H2^+		! f77 * Bolsig+ C2H2(v2) -> C2H2^+
e + C2H2(v13) => e + e + C2H2^+		! f77 * Bolsig+ C2H2(v13) -> C2H2^+
e + C2H2 => e + e + CH + CH^+		! f78 * Bolsig+ C2H2 -> CH CH^+
e + C2H2(v5) => e + e + CH + CH^+		! f78 * Bolsig+ C2H2(v5) -> CH CH^+
e + C2H2(v2) => e + e + CH + CH^+		! f78 * Bolsig+ C2H2(v2) -> CH CH^+
e + C2H2(v13) => e + e + CH + CH^+		! f78 * Bolsig+ C2H2(v13) -> CH CH^+
e + C3H8 => e + C3H7 + H		! f79 * Bolsig+ C3H8 -> C3H7 H
e + C3H8(v1) => e + C3H7 + H		! f79 * Bolsig+ C3H8(v1) -> C3H7 H
e + C3H8(v2) => e + C3H7 + H		! f79 * Bolsig+ C3H8(v2) -> C3H7 H
e + C3H8 => e + C3H6 + H2		! f80 * Bolsig+ C3H8 -> C3H6 H2
e + C3H8(v1) => e + C3H6 + H2		! f80 * Bolsig+ C3H8(v1) -> C3H6 H2
e + C3H8(v2) => e + C3H6 + H2		! f80 * Bolsig+ C3H8(v2) -> C3H6 H2
e + C3H7 => e + C3H6 + H		! f81 * Bolsig+ C3H7 -> C3H6 H
e + C3H8 => e + e + C3H8^+		! f82 * Bolsig+ C3H8 -> C3H8^+
e + C3H8(v1) => e + e + C3H8^+		! f82 * Bolsig+ C3H8(v1) -> C3H8^+
e + C3H8(v2) => e + e + C3H8^+		! f82 * Bolsig+ C3H8(v2) -> C3H8^+
e + C3H8 => e + e + H + C3H7^+		! f83 * Bolsig+ C3H8 -> H C3H7^+
e + C3H8(v1) => e + e + H + C3H7^+		! f83 * Bolsig+ C3H8(v1) -> H C3H7^+
e + C3H8(v2) => e + e + H + C3H7^+		! f83 * Bolsig+ C3H8(v2) -> H C3H7^+
e + C3H8 => e + e + H2 + C3H6^+		! f84 * Bolsig+ C3H8 -> H2 C3H6^+
e + C3H8(v1) => e + e + H2 + C3H6^+		! f84 * Bolsig+ C3H8(v1) -> H2 C3H6^+
e + C3H8(v2) => e + e + H2 + C3H6^+		! f84 * Bolsig+ C3H8(v2) -> H2 C3H6^+
e + C3H7 => e + e + C3H7^+		! f85 * Bolsig+ C3H7 -> C3H7^+
e + C3H7 => e + e + H + C3H6^+		! f86 * Bolsig+ C3H7 -> H C3H6^+
e + C3H6 => e + e + C3H6^+		! f87 * Bolsig+ C3H6 -> C3H6^+
e + C3H6(v) => e + e + C3H6^+		! f87 * Bolsig+ C3H6(v) -> C3H6^+
e + C3H6 => e + C2H2 + CH4		! f88 * Bolsig+ C3H6 -> C2H2 CH4
e + C3H6(v) => e + C2H2 + CH4		! f88 * Bolsig+ C3H6(v) -> C2H2 CH4
e + C3H6 => e + e + C2H2 + CH4^+		! f89 * Bolsig+ C3H6 -> C2H2 CH4^+
e + C3H6(v) => e + e + C2H2 + CH4^+		! f89 * Bolsig+ C3H6(v) -> C2H2 CH4^+

# Ion Recombination Reaction
e + e + CH^+ => e + CH		! f90 * 1.00d0
e + e + CH2^+ => e + CH2		! f91 * 1.00d0
e + e + CH3^+ => e + CH3		! f92 * 1.00d0
e + e + CH4^+ => e + CH4		! f93 * 1.00d0
e + e + C2H2^+ => e + C2H2		! f94 * 1.00d0
e + e + C2H3^+ => e + C2H3		! f95 * 1.00d0
e + e + C2H4^+ => e + C2H4		! f96 * 1.00d0
e + e + C2H5^+ => e + C2H5		! f97 * 1.00d0
e + e + C2H6^+ => e + C2H6		! f98 * 1.00d0
e + e + C3H6^+ => e + C3H6		! f99 * 1.00d0
e + e + C3H7^+ => e + C3H7		! f100 * 1.00d0
e + e + C3H8^+ => e + C3H8		! f101 * 1.00d0

# Gas Phase Reaction
e + CH4^+ => CH3 + H		! f102 * 1.18d-08 * (300./Tgas)**0.5
e + CH4^+ => CH2 + H + H		! f103 * 2.42d-08 * (300./Tgas)**0.5
e + CH4^+ => CH + H2 + H		! f104 * 1.41d-08 * (300./Tgas)**0.5
e + CH3^+ => CH2 + H		! f105 * 2.25d-08 * (300./Tgas)**0.5
e + CH3^+ => CH + H2		! f106 * 7.88d-09 * (300./Tgas)**0.5
e + CH3^+ => CH + H + H		! f107 * 9.00d-09 * (300./Tgas)**0.5
e + CH3^+ => C + H2 + H		! f108 * 1.69d-08 * (300./Tgas)**0.5
e + CH2^+ => CH + H		! f109 * 1.00d-08 * (300./Tgas)**0.5
e + CH2^+ => C + H2		! f110 * 4.82d-09 * (300./Tgas)**0.5
e + CH2^+ => C + H + H		! f111 * 2.53d-08 * (300./Tgas)**0.5
e + CH^+ => C + H		! f112 * 3.23d-08 * (300./Tgas)**0.42
e + C2H6^+ => C2H5 + H		! f113 * 2.19d-08 * (300./Tgas)**0.71
e + C2H6^+ => C2H4 + H + H		! f114 * 3.36d-08 * (300./Tgas)**0.71
e + C2H5^+ => C2H4 + H		! f115 * 7.70d-09 * (300./Tgas)**0.71
e + C2H5^+ => C2H3 + H + H		! f116 * 1.92d-08 * (300./Tgas)**0.71
e + C2H5^+ => C2H2 + H2 + H		! f117 * 1.60d-08 * (300./Tgas)**0.71
e + C2H5^+ => C2H2 + H + H + H		! f118 * 8.98d-09 * (300./Tgas)**0.71
e + C2H5^+ => CH3 + CH2		! f119 * 9.62d-09 * (300./Tgas)**0.71
e + C2H4^+ => C2H3 + H		! f120 * 8.29d-09 * (300./Tgas)**0.71
e + C2H4^+ => C2H2 + H + H		! f121 * 3.43d-08 * (300./Tgas)**0.71
e + C2H3^+ => C2H2 + H		! f122 * 1.34d-08 * (300./Tgas)**0.71
e + C2H2^+ => CH + CH		! f123 * 4.87d-09 * (300./Tgas)**0.71
e + H2^+ => H + H		! f124 * 3.17d21/(6.022d23 * Te**4.5)
e + H3^+ => H + H2		! f125 * 3.17d21/(6.022d23 * Te**4.5)
H2 + H2^+ => H + H3^+		! f126 * 2.11d-09
C2H6 + CH4^+ => CH4 + H2 + C2H4^+		! f127 * 1.91d-9
C2H6(v24) + CH4^+ => CH4 + H2 + C2H4^+		! f127 * 1.91d-9
C2H6(v13) + CH4^+ => CH4 + H2 + C2H4^+		! f127 * 1.91d-9
C2H4 + CH4^+ => CH3 + C2H5^+		! f128 * 4.23d-10