ELEMENTS
e C H
END

SPECIES
e C CH CH^+ CH2 CH2^+ CH3 CH3^+ CH4 CH4(v13) CH4(v24) CH4^+ C2H2 C2H2(v13) C2H2(v2) C2H2(v5) C2H2^+ C2H3 C2H3^+ C2H4 C2H4(v1) C2H4(v2) C2H4^+ C2H5 C2H5^+
C2H6 C2H6(v13) C2H6(v24) C2H6^+ C3H5 C3H6 C3H6(v) C3H6^+ C3H7 C3H7^+ C3H8 C3H8(v1) C3H8(v2) C3H8^+ C4H9 C4H9H C2H C5H12 H H2 H2^+ H3^+ H^+
END

BOLSIG
CH CH2 CH3 CH4 CH4(v13) CH4(v24) C2H2 C2H2(v13) C2H2(v2) C2H2(v5) C2H3 C2H4 C2H4(v1) C2H4(v2) C2H5 C2H6 C2H6(v13) C2H6(v24) C3H6 C3H6(v) C3H7 C3H8 C3H8(v1) C3H8(v2)
END

REACTIONS
# Gas Constant
$ double precision, parameter :: R = 8.314d-3

# Compensation Parameters
$ double precision, parameter :: f0 = 5.5235d-2
$ double precision, parameter :: f1 = 2.7985d+1
$ double precision, parameter :: f2 = 1.8800d-8
$ double precision, parameter :: f3 = 2.3221d-5
$ double precision, parameter :: f4 = 1.4168d+1
$ double precision, parameter :: f5 = 2.8941d-7
$ double precision, parameter :: f6 = 1.8002d+1
$ double precision, parameter :: f7 = 6.5104d-7
$ double precision, parameter :: f8 = 4.4606d-4
$ double precision, parameter :: f9 = 9.9189d+2
$ double precision, parameter :: f10 = 2.1418d-5
$ double precision, parameter :: f11 = 1.3188d+2
$ double precision, parameter :: f12 = 1.2650d-4
$ double precision, parameter :: f13 = 1.0312d-3
$ double precision, parameter :: f14 = 2.2000d+2
$ double precision, parameter :: f15 = 3.3932d-3
$ double precision, parameter :: f16 = 5.5415d-6
$ double precision, parameter :: f17 = 2.7223d-6
$ double precision, parameter :: f18 = 5.8969d-2
$ double precision, parameter :: f19 = 3.2491d-6
$ double precision, parameter :: f20 = 3.0868d-4
$ double precision, parameter :: f21 = 2.0313d-4
$ double precision, parameter :: f22 = 2.9129d-3
$ double precision, parameter :: f23 = 1.2101d-6
$ double precision, parameter :: f24 = 1.2711d-3
$ double precision, parameter :: f25 = 9.6397d+2
$ double precision, parameter :: f26 = 7.7441d-5
$ double precision, parameter :: f27 = 4.6534d-2
$ double precision, parameter :: f28 = 1.2272d+2
$ double precision, parameter :: f29 = 6.7599d-1
$ double precision, parameter :: f30 = 2.1545d-7
$ double precision, parameter :: f31 = 1.3938d-8
$ double precision, parameter :: f32 = 3.3573d-6
$ double precision, parameter :: f33 = 7.4940d-8
$ double precision, parameter :: f34 = 3.9690d0
$ double precision, parameter :: f35 = 9.3098d-3
$ double precision, parameter :: f36 = 1.4783d-4
$ double precision, parameter :: f37 = 3.9534d-2
$ double precision, parameter :: f38 = 8.6682d-8
$ double precision, parameter :: f39 = 2.9641d-7
$ double precision, parameter :: f40 = 5.0818d-6
$ double precision, parameter :: f41 = 2.1829d+2
$ double precision, parameter :: f42 = 1.6153d-5
$ double precision, parameter :: f43 = 9.7293d-5
$ double precision, parameter :: f44 = 1.0222d-6
$ double precision, parameter :: f45 = 3.2127d+2
$ double precision, parameter :: f46 = 2.0380d0
$ double precision, parameter :: f47 = 1.0957d-6
$ double precision, parameter :: f48 = 7.8777d+1
$ double precision, parameter :: f49 = 1.5221d0
$ double precision, parameter :: f50 = 9.8305d-3
$ double precision, parameter :: f51 = 1.0231d-1
$ double precision, parameter :: f52 = 2.4297d+1
$ double precision, parameter :: f53 = 8.1933d+1
$ double precision, parameter :: f54 = 3.6831d+1
$ double precision, parameter :: f55 = 8.1329d+1
$ double precision, parameter :: f56 = 2.2367d-1
$ double precision, parameter :: f57 = 6.0175d-1
$ double precision, parameter :: f58 = 8.1979d-3
$ double precision, parameter :: f59 = 1.2012d-8
$ double precision, parameter :: f60 = 9.4684d-7
$ double precision, parameter :: f61 = 7.5639d-7
$ double precision, parameter :: f62 = 7.1322d-3
$ double precision, parameter :: f63 = 3.1786d-4
$ double precision, parameter :: f64 = 2.2304d-7
$ double precision, parameter :: f65 = 3.9771d-6
$ double precision, parameter :: f66 = 2.4802d+1
$ double precision, parameter :: f67 = 1.0691d-3
$ double precision, parameter :: f68 = 3.7524d-6
$ double precision, parameter :: f69 = 1.6633d-4
$ double precision, parameter :: f70 = 1.1084d-7
$ double precision, parameter :: f71 = 3.1626d+1
$ double precision, parameter :: f72 = 7.4230d-8
$ double precision, parameter :: f73 = 4.1017d+2
$ double precision, parameter :: f74 = 2.6101d-6
$ double precision, parameter :: f75 = 3.9126d-5
$ double precision, parameter :: f76 = 2.2037d-3
$ double precision, parameter :: f77 = 2.1085d0
$ double precision, parameter :: f78 = 2.9100d+1
$ double precision, parameter :: f79 = 1.0752d-8
$ double precision, parameter :: f80 = 2.2770d+1
$ double precision, parameter :: f81 = 2.1991d-2
$ double precision, parameter :: f82 = 2.5010d0
$ double precision, parameter :: f83 = 2.0451d-6
$ double precision, parameter :: f84 = 2.4101d+1
$ double precision, parameter :: f85 = 3.3579d-5
$ double precision, parameter :: f86 = 7.7402d-8
$ double precision, parameter :: f87 = 4.0088d-3
$ double precision, parameter :: f88 = 2.1350d-5
$ double precision, parameter :: f89 = 2.4249d-4
$ double precision, parameter :: f90 = 6.4621d+1
$ double precision, parameter :: f91 = 6.2801d+1
$ double precision, parameter :: f92 = 3.0952d-2
$ double precision, parameter :: f93 = 1.0995d-5
$ double precision, parameter :: f94 = 4.7060d-8
$ double precision, parameter :: f95 = 4.3336d-5
$ double precision, parameter :: f96 = 5.5980d+2
$ double precision, parameter :: f97 = 4.8102d-6
$ double precision, parameter :: f98 = 2.2597d+2
$ double precision, parameter :: f99 = 1.8066d-3
$ double precision, parameter :: f100 = 1.8078d-8
$ double precision, parameter :: f101 = 4.2321d-2
$ double precision, parameter :: f102 = 5.5660d-3
$ double precision, parameter :: f103 = 1.5740d+1
$ double precision, parameter :: f104 = 2.0544d-5
$ double precision, parameter :: f105 = 7.6625d+1
$ double precision, parameter :: f106 = 5.3224d-2
$ double precision, parameter :: f107 = 1.8430d-6
$ double precision, parameter :: f108 = 2.3866d-3
$ double precision, parameter :: f109 = 1.4802d-2
$ double precision, parameter :: f110 = 1.3384d-1
$ double precision, parameter :: f111 = 6.9908d-8
$ double precision, parameter :: f112 = 2.3971d-3
$ double precision, parameter :: f113 = 3.7882d-6
$ double precision, parameter :: f114 = 4.0104d-3
$ double precision, parameter :: f115 = 5.9246d-5
$ double precision, parameter :: f116 = 1.3490d-3
$ double precision, parameter :: f117 = 1.8098d-5
$ double precision, parameter :: f118 = 6.4325d-6
$ double precision, parameter :: f119 = 1.6403d-5
$ double precision, parameter :: f120 = 7.3708d+2
$ double precision, parameter :: f121 = 3.8352d-6
$ double precision, parameter :: f122 = 6.6265d+1
$ double precision, parameter :: f123 = 6.4835d-8
$ double precision, parameter :: f124 = 8.6486d+2
$ double precision, parameter :: f125 = 4.9491d-1
$ double precision, parameter :: f126 = 7.3890d-7
$ double precision, parameter :: f127 = 4.2310d0
$ double precision, parameter :: f128 = 9.9274d-7
$ double precision, parameter :: f129 = 5.1204d-8
$ double precision, parameter :: f130 = 4.1675d-2
$ double precision, parameter :: f131 = 3.7647d-6
$ double precision, parameter :: f132 = 1.1533d-7
$ double precision, parameter :: f133 = 2.4632d-6
$ double precision, parameter :: f134 = 2.9385d-7
$ double precision, parameter :: f135 = 2.0124d+1
$ double precision, parameter :: f136 = 3.3858d-6
$ double precision, parameter :: f137 = 2.8691d-6
$ double precision, parameter :: f138 = 6.3849d-8
$ double precision, parameter :: f139 = 1.1284d-5
$ double precision, parameter :: f140 = 2.3888d-1
$ double precision, parameter :: f141 = 6.8394d-4
$ double precision, parameter :: f142 = 4.9138d-6
$ double precision, parameter :: f143 = 8.8242d-4
$ double precision, parameter :: f144 = 3.1256d-6
$ double precision, parameter :: f145 = 1.4672d-2
$ double precision, parameter :: f146 = 5.6307d+2
$ double precision, parameter :: f147 = 2.0635d-1
$ double precision, parameter :: f148 = 9.6259d+2
$ double precision, parameter :: f149 = 2.6418d-8
$ double precision, parameter :: f150 = 2.3668d-1
$ double precision, parameter :: f151 = 4.7478d+2
$ double precision, parameter :: f152 = 1.8424d-1
$ double precision, parameter :: f153 = 1.1857d-5
$ double precision, parameter :: f154 = 5.4793d-7
$ double precision, parameter :: f155 = 6.9802d+2
$ double precision, parameter :: f156 = 6.3663d-5
$ double precision, parameter :: f157 = 3.6326d-3
$ double precision, parameter :: f158 = 2.1160d+1
$ double precision, parameter :: f159 = 2.4878d-8
$ double precision, parameter :: f160 = 1.1573d-3
$ double precision, parameter :: f161 = 1.3264d-2
$ double precision, parameter :: f162 = 1.2861d+2
$ double precision, parameter :: f163 = 5.4622d-6
$ double precision, parameter :: f164 = 4.6167d-8
$ double precision, parameter :: f165 = 8.3997d-4
$ double precision, parameter :: f166 = 3.7633d-7
$ double precision, parameter :: f167 = 1.3958d+1
$ double precision, parameter :: f168 = 1.1228d-7
$ double precision, parameter :: f169 = 3.0223d-4
$ double precision, parameter :: f170 = 1.0020d-5
$ double precision, parameter :: f171 = 7.1463d-4
$ double precision, parameter :: f172 = 1.2140d-6
$ double precision, parameter :: f173 = 4.5175d-3
$ double precision, parameter :: f174 = 9.9733d-8
$ double precision, parameter :: f175 = 1.4439d-4
$ double precision, parameter :: f176 = 2.9330d-8
$ double precision, parameter :: f177 = 3.2110d+2
$ double precision, parameter :: f178 = 4.5203d-2
$ double precision, parameter :: f179 = 7.4778d-6
$ double precision, parameter :: f180 = 3.2685d+2
$ double precision, parameter :: f181 = 8.6882d-1
$ double precision, parameter :: f182 = 1.5840d+1
$ double precision, parameter :: f183 = 2.2214d0
$ double precision, parameter :: f184 = 1.8147d-3
$ double precision, parameter :: f185 = 4.9427d+2
$ double precision, parameter :: f186 = 8.3004d-6
$ double precision, parameter :: f187 = 1.1541d-4
$ double precision, parameter :: f188 = 1.5560d-2
$ double precision, parameter :: f189 = 2.5147d0
$ double precision, parameter :: f190 = 7.5984d+1
$ double precision, parameter :: f191 = 7.7726d-1
$ double precision, parameter :: f192 = 2.1444d-8
$ double precision, parameter :: f193 = 7.7482d-4
$ double precision, parameter :: f194 = 9.5282d-8
$ double precision, parameter :: f195 = 6.2349d-6
$ double precision, parameter :: f196 = 2.3514d-5
$ double precision, parameter :: f197 = 1.9506d+2
$ double precision, parameter :: f198 = 2.6154d-8
$ double precision, parameter :: f199 = 1.1070d-5
$ double precision, parameter :: f200 = 4.8020d-6
$ double precision, parameter :: f201 = 6.5954d+1
$ double precision, parameter :: f202 = 3.2152d+2
$ double precision, parameter :: f203 = 1.1398d-8
$ double precision, parameter :: f204 = 1.3032d-7
$ double precision, parameter :: f205 = 2.0321d+2
$ double precision, parameter :: f206 = 4.4967d-2
$ double precision, parameter :: f207 = 4.2388d0
$ double precision, parameter :: f208 = 4.3697d+2
$ double precision, parameter :: f209 = 3.0466d-4
$ double precision, parameter :: f210 = 1.2008d-6
$ double precision, parameter :: f211 = 2.8274d-5
$ double precision, parameter :: f212 = 1.1743d+2
$ double precision, parameter :: f213 = 4.9984d-6
$ double precision, parameter :: f214 = 2.9276d-4
$ double precision, parameter :: f215 = 1.1205d-2
$ double precision, parameter :: f216 = 3.2955d+2
$ double precision, parameter :: f217 = 2.8197d-3
$ double precision, parameter :: f218 = 5.1697d-1
$ double precision, parameter :: f219 = 7.5685d-5
$ double precision, parameter :: f220 = 3.6302d0
$ double precision, parameter :: f221 = 1.2405d-8
$ double precision, parameter :: f222 = 1.0497d-2
$ double precision, parameter :: f223 = 3.3402d-7
$ double precision, parameter :: f224 = 3.3300d+1
$ double precision, parameter :: f225 = 1.0464d+2
$ double precision, parameter :: f226 = 7.2634d-8
$ double precision, parameter :: f227 = 2.1054d+2
$ double precision, parameter :: f228 = 3.3425d+2
$ double precision, parameter :: f229 = 8.3634d-2
$ double precision, parameter :: f230 = 1.4215d-5
$ double precision, parameter :: f231 = 2.6170d+2
$ double precision, parameter :: f232 = 3.1593d+2
$ double precision, parameter :: f233 = 7.6369d0
$ double precision, parameter :: f234 = 2.8242d-1
$ double precision, parameter :: f235 = 1.6489d-6
$ double precision, parameter :: f236 = 1.4768d-5
$ double precision, parameter :: f237 = 9.8784d-8
$ double precision, parameter :: f238 = 3.2373d-5
$ double precision, parameter :: f239 = 8.7803d-6
$ double precision, parameter :: f240 = 5.1868d+1
$ double precision, parameter :: f241 = 1.1945d-6
$ double precision, parameter :: f242 = 4.6487d+1
$ double precision, parameter :: f243 = 1.2193d-6
$ double precision, parameter :: f244 = 3.1141d-7
$ double precision, parameter :: f245 = 4.8326d+2
$ double precision, parameter :: f246 = 3.1416d-4
$ double precision, parameter :: f247 = 4.9002d0
$ double precision, parameter :: f248 = 1.6125d0
$ double precision, parameter :: f249 = 5.5772d-8
$ double precision, parameter :: f250 = 2.2106d0
$ double precision, parameter :: f251 = 3.2824d-1
$ double precision, parameter :: f252 = 1.5918d0
$ double precision, parameter :: f253 = 6.7971d-6
$ double precision, parameter :: f254 = 4.2594d+1
$ double precision, parameter :: f255 = 7.3281d-7
$ double precision, parameter :: f256 = 4.8993d+1
$ double precision, parameter :: f257 = 1.7398d-2
$ double precision, parameter :: f258 = 1.2070d-5
$ double precision, parameter :: f259 = 1.0176d-1
$ double precision, parameter :: f260 = 3.2130d-4
$ double precision, parameter :: f261 = 7.9356d-4
$ double precision, parameter :: f262 = 2.3814d0
$ double precision, parameter :: f263 = 3.6323d-3
$ double precision, parameter :: f264 = 6.1349d+2
$ double precision, parameter :: f265 = 6.9258d-5
$ double precision, parameter :: f266 = 3.1106d-5
$ double precision, parameter :: f267 = 1.8887d+1
$ double precision, parameter :: f268 = 1.3340d-2
$ double precision, parameter :: f269 = 5.2543d0
$ double precision, parameter :: f270 = 2.2506d+1
$ double precision, parameter :: f271 = 5.0699d+2
$ double precision, parameter :: f272 = 1.7136d-3
$ double precision, parameter :: f273 = 7.0520d-8
$ double precision, parameter :: f274 = 1.1415d-8
$ double precision, parameter :: f275 = 2.8255d0
$ double precision, parameter :: f276 = 4.8548d-1
$ double precision, parameter :: f277 = 1.1921d-8
$ double precision, parameter :: f278 = 2.0286d-3
$ double precision, parameter :: f279 = 1.5606d-3
$ double precision, parameter :: f280 = 2.7681d-7
$ double precision, parameter :: f281 = 5.1744d-4
$ double precision, parameter :: f282 = 1.5008d-6
$ double precision, parameter :: f283 = 6.2606d-2
$ double precision, parameter :: f284 = 6.2130d-6
$ double precision, parameter :: f285 = 2.9368d-1
$ double precision, parameter :: f286 = 5.8427d-3
$ double precision, parameter :: f287 = 1.2579d-4
$ double precision, parameter :: f288 = 2.5819d-7
$ double precision, parameter :: f289 = 9.0006d-6
$ double precision, parameter :: f290 = 2.9079d+1
$ double precision, parameter :: f291 = 1.0946d-1
$ double precision, parameter :: f292 = 9.7355d+2
$ double precision, parameter :: f293 = 9.7837d-2
$ double precision, parameter :: f294 = 1.4217d-4
$ double precision, parameter :: f295 = 3.6774d-2
$ double precision, parameter :: f296 = 3.7248d-1
$ double precision, parameter :: f297 = 1.2838d-6
$ double precision, parameter :: f298 = 3.3464d-2
$ double precision, parameter :: f299 = 4.4798d-4
$ double precision, parameter :: f300 = 1.1836d+2
$ double precision, parameter :: f301 = 1.8875d+2
$ double precision, parameter :: f302 = 2.2412d-5
$ double precision, parameter :: f303 = 4.9481d-7
$ double precision, parameter :: f304 = 4.2520d+2
$ double precision, parameter :: f305 = 2.4089d-8
$ double precision, parameter :: f306 = 2.8884d-2
$ double precision, parameter :: f307 = 2.2043d-3
$ double precision, parameter :: f308 = 2.0261d-4
$ double precision, parameter :: f309 = 1.5997d-5
$ double precision, parameter :: f310 = 1.0721d-7
$ double precision, parameter :: f311 = 6.7159d-2
$ double precision, parameter :: f312 = 1.4571d+2
$ double precision, parameter :: f313 = 8.4978d0
$ double precision, parameter :: f314 = 2.5910d+1
$ double precision, parameter :: f315 = 8.5452d-7

# Electron Collision Reaction
e + CH4 => e + CH4(v24)		! f0 * Bolsig+ CH4 -> CH4(v24)
e + CH4 => e + CH4(v13)		! f1 * Bolsig+ CH4 -> CH4(v13)
e + C2H6 => e + C2H6(v24)		! f2 * Bolsig+ C2H6 -> C2H6(v24)
e + C2H6 => e + C2H6(v13)		! f3 * Bolsig+ C2H6 -> C2H6(v13)
e + C2H4 => e + C2H4(v1)		! f4 * Bolsig+ C2H4 -> C2H4(v1)
e + C2H4 => e + C2H4(v2)		! f5 * Bolsig+ C2H4 -> C2H4(v2)
e + C2H2 => e + C2H2(v5)		! f6 * Bolsig+ C2H2 -> C2H2(v5)
e + C2H2 => e + C2H2(v2)		! f7 * Bolsig+ C2H2 -> C2H2(v2)
e + C2H2 => e + C2H2(v13)		! f8 * Bolsig+ C2H2 -> C2H2(v13)
e + C3H8 => e + C3H8(v1)		! f9 * Bolsig+ C3H8 -> C3H8(v1)
e + C3H8 => e + C3H8(v2)		! f10 * Bolsig+ C3H8 -> C3H8(v2)
e + C3H6 => e + C3H6(v)		! f11 * Bolsig+ C3H6 -> C3H6(v)
e + CH4 => e + CH3 + H		! f12 * Bolsig+ CH4 -> CH3 H
e + CH4(v24) => e + CH3 + H		! f12 * Bolsig+ CH4(v24) -> CH3 H
e + CH4(v13) => e + CH3 + H		! f12 * Bolsig+ CH4(v13) -> CH3 H
e + CH4 => e + CH2 + H2		! f13 * Bolsig+ CH4 -> CH2 H2
e + CH4(v24) => e + CH2 + H2		! f13 * Bolsig+ CH4(v24) -> CH2 H2
e + CH4(v13) => e + CH2 + H2		! f13 * Bolsig+ CH4(v13) -> CH2 H2
e + CH4 => e + CH + H2 + H		! f14 * Bolsig+ CH4 -> CH H2 H
e + CH4(v24) => e + CH + H2 + H		! f14 * Bolsig+ CH4(v24) -> CH H2 H
e + CH4(v13) => e + CH + H2 + H		! f14 * Bolsig+ CH4(v13) -> CH H2 H
e + CH4 => e + C + H2 + H2		! f15 * Bolsig+ CH4 -> C H2 H2
e + CH4(v24) => e + C + H2 + H2		! f15 * Bolsig+ CH4(v24) -> C H2 H2
e + CH4(v13) => e + C + H2 + H2		! f15 * Bolsig+ CH4(v13) -> C H2 H2
e + CH3 => e + CH2 + H		! f16 * Bolsig+ CH3 -> CH2 H
e + CH3 => e + CH + H2		! f17 * Bolsig+ CH3 -> CH H2
e + CH3 => e + C + H2 + H		! f18 * Bolsig+ CH3 -> C H2 H
e + CH2 => e + CH + H		! f19 * Bolsig+ CH2 -> CH H
e + CH2 => e + C + H2		! f20 * Bolsig+ CH2 -> C H2
e + CH2 => e + C + H + H		! f21 * Bolsig+ CH2 -> C H H
e + CH => e + C + H		! f22 * Bolsig+ CH -> C H
e + CH4 => e + e + CH4^+		! f23 * Bolsig+ CH4 -> CH4^+
e + CH4(v24) => e + e + CH4^+		! f23 * Bolsig+ CH4(v24) -> CH4^+
e + CH4(v13) => e + e + CH4^+		! f23 * Bolsig+ CH4(v13) -> CH4^+
e + CH4 => e + e + H + CH3^+		! f24 * Bolsig+ CH4 -> H CH3^+
e + CH4(v24) => e + e + H + CH3^+		! f24 * Bolsig+ CH4(v24) -> H CH3^+
e + CH4(v13) => e + e + H + CH3^+		! f24 * Bolsig+ CH4(v13) -> H CH3^+
e + CH4 => e + e + H2 + CH2^+		! f25 * Bolsig+ CH4 -> H2 CH2^+
e + CH4(v24) => e + e + H2 + CH2^+		! f25 * Bolsig+ CH4(v24) -> H2 CH2^+
e + CH4(v13) => e + e + H2 + CH2^+		! f25 * Bolsig+ CH4(v13) -> H2 CH2^+
e + CH4 => e + e + H2 + H + CH^+		! f26 * Bolsig+ CH4 -> H2 H CH^+
e + CH4(v24) => e + e + H2 + H + CH^+		! f26 * Bolsig+ CH4(v24) -> H2 H CH^+
e + CH4(v13) => e + e + H2 + H + CH^+		! f26 * Bolsig+ CH4(v13) -> H2 H CH^+
e + CH3 => e + e + CH3^+		! f27 * Bolsig+ CH3 -> CH3^+
e + CH3 => e + e + H + CH2^+		! f28 * Bolsig+ CH3 -> H CH2^+
e + CH3 => e + e + H2 + CH^+		! f29 * Bolsig+ CH3 -> H2 CH^+
e + CH2 => e + e + CH2^+		! f30 * Bolsig+ CH2 -> CH2^+
e + CH2 => e + e + H + CH^+		! f31 * Bolsig+ CH2 -> H CH^+
e + CH => e + e + CH^+		! f32 * Bolsig+ CH -> CH^+
e + C2H6 => e + C2H5 + H		! f33 * Bolsig+ C2H6 -> C2H5 H
e + C2H6(v24) => e + C2H5 + H		! f33 * Bolsig+ C2H6(v24) -> C2H5 H
e + C2H6(v13) => e + C2H5 + H		! f33 * Bolsig+ C2H6(v13) -> C2H5 H
e + C2H6 => e + C2H4 + H2		! f34 * Bolsig+ C2H6 -> C2H4 H2
e + C2H6(v24) => e + C2H4 + H2		! f34 * Bolsig+ C2H6(v24) -> C2H4 H2
e + C2H6(v13) => e + C2H4 + H2		! f34 * Bolsig+ C2H6(v13) -> C2H4 H2
e + C2H6 => e + C2H3 + H2 + H		! f35 * Bolsig+ C2H6 -> C2H3 H2 H
e + C2H6(v24) => e + C2H3 + H2 + H		! f35 * Bolsig+ C2H6(v24) -> C2H3 H2 H
e + C2H6(v13) => e + C2H3 + H2 + H		! f35 * Bolsig+ C2H6(v13) -> C2H3 H2 H
e + C2H6 => e + C2H2 + H2 + H2		! f36 * Bolsig+ C2H6 -> C2H2 H2 H2
e + C2H6(v24) => e + C2H2 + H2 + H2		! f36 * Bolsig+ C2H6(v24) -> C2H2 H2 H2
e + C2H6(v13) => e + C2H2 + H2 + H2		! f36 * Bolsig+ C2H6(v13) -> C2H2 H2 H2
e + C2H6 => e + CH4 + CH2		! f37 * Bolsig+ C2H6 -> CH4 CH2
e + C2H6(v24) => e + CH4 + CH2		! f37 * Bolsig+ C2H6(v24) -> CH4 CH2
e + C2H6(v13) => e + CH4 + CH2		! f37 * Bolsig+ C2H6(v13) -> CH4 CH2
e + C2H6 => e + CH3 + CH3		! f38 * Bolsig+ C2H6 -> CH3 CH3
e + C2H6(v24) => e + CH3 + CH3		! f38 * Bolsig+ C2H6(v24) -> CH3 CH3
e + C2H6(v13) => e + CH3 + CH3		! f38 * Bolsig+ C2H6(v13) -> CH3 CH3
e + C2H5 => e + C2H4 + H		! f39 * Bolsig+ C2H5 -> C2H4 H
e + C2H5 => e + C2H3 + H2		! f40 * Bolsig+ C2H5 -> C2H3 H2
e + C2H5 => e + C2H3 + H + H		! f41 * Bolsig+ C2H5 -> C2H3 H H
e + C2H5 => e + C2H2 + H2 + H		! f42 * Bolsig+ C2H5 -> C2H2 H2 H
e + C2H5 => e + CH4 + CH		! f43 * Bolsig+ C2H5 -> CH4 CH
e + C2H5 => e + CH3 + CH2		! f44 * Bolsig+ C2H5 -> CH3 CH2
e + C2H4 => e + C2H3 + H		! f45 * Bolsig+ C2H4 -> C2H3 H
e + C2H4(v1) => e + C2H3 + H		! f45 * Bolsig+ C2H4(v1) -> C2H3 H
e + C2H4(v2) => e + C2H3 + H		! f45 * Bolsig+ C2H4(v2) -> C2H3 H
e + C2H4 => e + C2H2 + H2		! f46 * Bolsig+ C2H4 -> C2H2 H2
e + C2H4(v1) => e + C2H2 + H2		! f46 * Bolsig+ C2H4(v1) -> C2H2 H2
e + C2H4(v2) => e + C2H2 + H2		! f46 * Bolsig+ C2H4(v2) -> C2H2 H2
e + C2H4 => e + C2H2 + H + H		! f47 * Bolsig+ C2H4 -> C2H2 H H
e + C2H4(v1) => e + C2H2 + H + H		! f47 * Bolsig+ C2H4(v1) -> C2H2 H H
e + C2H4(v2) => e + C2H2 + H + H		! f47 * Bolsig+ C2H4(v2) -> C2H2 H H
e + C2H4 => e + CH3 + CH		! f48 * Bolsig+ C2H4 -> CH3 CH
e + C2H4(v1) => e + CH3 + CH		! f48 * Bolsig+ C2H4(v1) -> CH3 CH
e + C2H4(v2) => e + CH3 + CH		! f48 * Bolsig+ C2H4(v2) -> CH3 CH
e + C2H4 => e + CH2 + CH2		! f49 * Bolsig+ C2H4 -> CH2 CH2
e + C2H4(v1) => e + CH2 + CH2		! f49 * Bolsig+ C2H4(v1) -> CH2 CH2
e + C2H4(v2) => e + CH2 + CH2		! f49 * Bolsig+ C2H4(v2) -> CH2 CH2
e + C2H3 => e + C2H2 + H		! f50 * Bolsig+ C2H3 -> C2H2 H
e + C2H3 => e + CH2 + CH		! f51 * Bolsig+ C2H3 -> CH2 CH
e + C2H2 => e + CH + CH		! f52 * Bolsig+ C2H2 -> CH CH
e + C2H2(v5) => e + CH + CH		! f52 * Bolsig+ C2H2(v5) -> CH CH
e + C2H2(v2) => e + CH + CH		! f52 * Bolsig+ C2H2(v2) -> CH CH
e + C2H2(v13) => e + CH + CH		! f52 * Bolsig+ C2H2(v13) -> CH CH
e + C2H6 => e + e + C2H6^+		! f53 * Bolsig+ C2H6 -> C2H6^+
e + C2H6(v24) => e + e + C2H6^+		! f53 * Bolsig+ C2H6(v24) -> C2H6^+
e + C2H6(v13) => e + e + C2H6^+		! f53 * Bolsig+ C2H6(v13) -> C2H6^+
e + C2H6 => e + e + H + C2H5^+		! f54 * Bolsig+ C2H6 -> H C2H5^+
e + C2H6(v24) => e + e + H + C2H5^+		! f54 * Bolsig+ C2H6(v24) -> H C2H5^+
e + C2H6(v13) => e + e + H + C2H5^+		! f54 * Bolsig+ C2H6(v13) -> H C2H5^+
e + C2H6 => e + e + H2 + C2H4^+		! f55 * Bolsig+ C2H6 -> H2 C2H4^+
e + C2H6(v24) => e + e + H2 + C2H4^+		! f55 * Bolsig+ C2H6(v24) -> H2 C2H4^+
e + C2H6(v13) => e + e + H2 + C2H4^+		! f55 * Bolsig+ C2H6(v13) -> H2 C2H4^+
e + C2H6 => e + e + H2 + H + C2H3^+		! f56 * Bolsig+ C2H6 -> H2 H C2H3^+
e + C2H6(v24) => e + e + H2 + H + C2H3^+		! f56 * Bolsig+ C2H6(v24) -> H2 H C2H3^+
e + C2H6(v13) => e + e + H2 + H + C2H3^+		! f56 * Bolsig+ C2H6(v13) -> H2 H C2H3^+
e + C2H6 => e + e + H2 + H2 + C2H2^+		! f57 * Bolsig+ C2H6 -> H2 H2 C2H2^+
e + C2H6(v24) => e + e + H2 + H2 + C2H2^+		! f57 * Bolsig+ C2H6(v24) -> H2 H2 C2H2^+
e + C2H6(v13) => e + e + H2 + H2 + C2H2^+		! f57 * Bolsig+ C2H6(v13) -> H2 H2 C2H2^+
e + C2H6 => e + e + CH3 + CH3^+		! f58 * Bolsig+ C2H6 -> CH3 CH3^+
e + C2H6(v24) => e + e + CH3 + CH3^+		! f58 * Bolsig+ C2H6(v24) -> CH3 CH3^+
e + C2H6(v13) => e + e + CH3 + CH3^+		! f58 * Bolsig+ C2H6(v13) -> CH3 CH3^+
e + C2H6 => e + e + CH4 + CH2^+		! f59 * Bolsig+ C2H6 -> CH4 CH2^+
e + C2H6(v24) => e + e + CH4 + CH2^+		! f59 * Bolsig+ C2H6(v24) -> CH4 CH2^+
e + C2H6(v13) => e + e + CH4 + CH2^+		! f59 * Bolsig+ C2H6(v13) -> CH4 CH2^+
e + C2H5 => e + e + C2H5^+		! f60 * Bolsig+ C2H5 -> C2H5^+
e + C2H5 => e + e + H + C2H4^+		! f61 * Bolsig+ C2H5 -> H C2H4^+
e + C2H5 => e + e + H2 + C2H3^+		! f62 * Bolsig+ C2H5 -> H2 C2H3^+
e + C2H5 => e + e + H2 + H + C2H2^+		! f63 * Bolsig+ C2H5 -> H2 H C2H2^+
e + C2H5 => e + e + CH2 + CH3^+		! f64 * Bolsig+ C2H5 -> CH2 CH3^+
e + C2H5 => e + e + CH3 + CH2^+		! f65 * Bolsig+ C2H5 -> CH3 CH2^+
e + C2H5 => e + e + CH4 + CH^+		! f66 * Bolsig+ C2H5 -> CH4 CH^+
e + C2H4 => e + e + C2H4^+		! f67 * Bolsig+ C2H4 -> C2H4^+
e + C2H4(v1) => e + e + C2H4^+		! f67 * Bolsig+ C2H4(v1) -> C2H4^+
e + C2H4(v2) => e + e + C2H4^+		! f67 * Bolsig+ C2H4(v2) -> C2H4^+
e + C2H4 => e + e + H + C2H3^+		! f68 * Bolsig+ C2H4 -> H C2H3^+
e + C2H4(v1) => e + e + H + C2H3^+		! f68 * Bolsig+ C2H4(v1) -> H C2H3^+
e + C2H4(v2) => e + e + H + C2H3^+		! f68 * Bolsig+ C2H4(v2) -> H C2H3^+
e + C2H4 => e + e + CH + CH3^+		! f69 * Bolsig+ C2H4 -> CH CH3^+
e + C2H4(v1) => e + e + CH + CH3^+		! f69 * Bolsig+ C2H4(v1) -> CH CH3^+
e + C2H4(v2) => e + e + CH + CH3^+		! f69 * Bolsig+ C2H4(v2) -> CH CH3^+
e + C2H4 => e + e + CH2 + CH2^+		! f70 * Bolsig+ C2H4 -> CH2 CH2^+
e + C2H4(v1) => e + e + CH2 + CH2^+		! f70 * Bolsig+ C2H4(v1) -> CH2 CH2^+
e + C2H4(v2) => e + e + CH2 + CH2^+		! f70 * Bolsig+ C2H4(v2) -> CH2 CH2^+
e + C2H4 => e + e + CH3 + CH^+		! f71 * Bolsig+ C2H4 -> CH3 CH^+
e + C2H4(v1) => e + e + CH3 + CH^+		! f71 * Bolsig+ C2H4(v1) -> CH3 CH^+
e + C2H4(v2) => e + e + CH3 + CH^+		! f71 * Bolsig+ C2H4(v2) -> CH3 CH^+
e + C2H3 => e + e + C2H3^+		! f72 * Bolsig+ C2H3 -> C2H3^+
e + C2H3 => e + e + H + C2H2^+		! f73 * Bolsig+ C2H3 -> H C2H2^+
e + C2H3 => e + e + CH + CH2^+		! f74 * Bolsig+ C2H3 -> CH CH2^+
e + C2H3 => e + e + CH2 + CH^+		! f75 * Bolsig+ C2H3 -> CH2 CH^+
e + C2H3 => e + e + C2H2 + H^+		! f76 * Bolsig+ C2H3 -> C2H2 H^+
e + C2H2 => e + e + C2H2^+		! f77 * Bolsig+ C2H2 -> C2H2^+
e + C2H2(v5) => e + e + C2H2^+		! f77 * Bolsig+ C2H2(v5) -> C2H2^+
e + C2H2(v2) => e + e + C2H2^+		! f77 * Bolsig+ C2H2(v2) -> C2H2^+
e + C2H2(v13) => e + e + C2H2^+		! f77 * Bolsig+ C2H2(v13) -> C2H2^+
e + C2H2 => e + e + CH + CH^+		! f78 * Bolsig+ C2H2 -> CH CH^+
e + C2H2(v5) => e + e + CH + CH^+		! f78 * Bolsig+ C2H2(v5) -> CH CH^+
e + C2H2(v2) => e + e + CH + CH^+		! f78 * Bolsig+ C2H2(v2) -> CH CH^+
e + C2H2(v13) => e + e + CH + CH^+		! f78 * Bolsig+ C2H2(v13) -> CH CH^+
e + C3H8 => e + C3H7 + H		! f79 * Bolsig+ C3H8 -> C3H7 H
e + C3H8(v1) => e + C3H7 + H		! f79 * Bolsig+ C3H8(v1) -> C3H7 H
e + C3H8(v2) => e + C3H7 + H		! f79 * Bolsig+ C3H8(v2) -> C3H7 H
e + C3H8 => e + C3H6 + H2		! f80 * Bolsig+ C3H8 -> C3H6 H2
e + C3H8(v1) => e + C3H6 + H2		! f80 * Bolsig+ C3H8(v1) -> C3H6 H2
e + C3H8(v2) => e + C3H6 + H2		! f80 * Bolsig+ C3H8(v2) -> C3H6 H2
e + C3H7 => e + C3H6 + H		! f81 * Bolsig+ C3H7 -> C3H6 H
e + C3H8 => e + e + C3H8^+		! f82 * Bolsig+ C3H8 -> C3H8^+
e + C3H8(v1) => e + e + C3H8^+		! f82 * Bolsig+ C3H8(v1) -> C3H8^+
e + C3H8(v2) => e + e + C3H8^+		! f82 * Bolsig+ C3H8(v2) -> C3H8^+
e + C3H8 => e + e + H + C3H7^+		! f83 * Bolsig+ C3H8 -> H C3H7^+
e + C3H8(v1) => e + e + H + C3H7^+		! f83 * Bolsig+ C3H8(v1) -> H C3H7^+
e + C3H8(v2) => e + e + H + C3H7^+		! f83 * Bolsig+ C3H8(v2) -> H C3H7^+
e + C3H8 => e + e + H2 + C3H6^+		! f84 * Bolsig+ C3H8 -> H2 C3H6^+
e + C3H8(v1) => e + e + H2 + C3H6^+		! f84 * Bolsig+ C3H8(v1) -> H2 C3H6^+
e + C3H8(v2) => e + e + H2 + C3H6^+		! f84 * Bolsig+ C3H8(v2) -> H2 C3H6^+
e + C3H7 => e + e + C3H7^+		! f85 * Bolsig+ C3H7 -> C3H7^+
e + C3H7 => e + e + H + C3H6^+		! f86 * Bolsig+ C3H7 -> H C3H6^+
e + C3H6 => e + e + C3H6^+		! f87 * Bolsig+ C3H6 -> C3H6^+
e + C3H6(v) => e + e + C3H6^+		! f87 * Bolsig+ C3H6(v) -> C3H6^+
e + C3H6 => e + C2H2 + CH4		! f88 * Bolsig+ C3H6 -> C2H2 CH4
e + C3H6(v) => e + C2H2 + CH4		! f88 * Bolsig+ C3H6(v) -> C2H2 CH4
e + C3H6 => e + e + C2H2 + CH4^+		! f89 * Bolsig+ C3H6 -> C2H2 CH4^+
e + C3H6(v) => e + e + C2H2 + CH4^+		! f89 * Bolsig+ C3H6(v) -> C2H2 CH4^+

# Ion Recombination Reaction
e + e + CH^+ => e + CH		! f90 * 1.00d0
e + e + CH2^+ => e + CH2		! f91 * 1.00d0
e + e + CH3^+ => e + CH3		! f92 * 1.00d0
e + e + CH4^+ => e + CH4		! f93 * 1.00d0
e + e + C2H2^+ => e + C2H2		! f94 * 1.00d0
e + e + C2H3^+ => e + C2H3		! f95 * 1.00d0
e + e + C2H4^+ => e + C2H4		! f96 * 1.00d0
e + e + C2H5^+ => e + C2H5		! f97 * 1.00d0
e + e + C2H6^+ => e + C2H6		! f98 * 1.00d0
e + e + C3H6^+ => e + C3H6		! f99 * 1.00d0
e + e + C3H7^+ => e + C3H7		! f100 * 1.00d0
e + e + C3H8^+ => e + C3H8		! f101 * 1.00d0

# Gas Phase Reaction
e + CH4^+ => CH3 + H		! f102 * 1.18d-08 * (300./Tgas)**0.5
e + CH4^+ => CH2 + H + H		! f103 * 2.42d-08 * (300./Tgas)**0.5
e + CH4^+ => CH + H2 + H		! f104 * 1.41d-08 * (300./Tgas)**0.5
e + CH3^+ => CH2 + H		! f105 * 2.25d-08 * (300./Tgas)**0.5
e + CH3^+ => CH + H2		! f106 * 7.88d-09 * (300./Tgas)**0.5
e + CH3^+ => CH + H + H		! f107 * 9.00d-09 * (300./Tgas)**0.5
e + CH3^+ => C + H2 + H		! f108 * 1.69d-08 * (300./Tgas)**0.5
e + CH2^+ => CH + H		! f109 * 1.00d-08 * (300./Tgas)**0.5
e + CH2^+ => C + H2		! f110 * 4.82d-09 * (300./Tgas)**0.5
e + CH2^+ => C + H + H		! f111 * 2.53d-08 * (300./Tgas)**0.5
e + CH^+ => C + H		! f112 * 3.23d-08 * (300./Tgas)**0.42
e + C2H6^+ => C2H5 + H		! f113 * 2.19d-08 * (300./Tgas)**0.71
e + C2H6^+ => C2H4 + H + H		! f114 * 3.36d-08 * (300./Tgas)**0.71
e + C2H5^+ => C2H4 + H		! f115 * 7.70d-09 * (300./Tgas)**0.71
e + C2H5^+ => C2H3 + H + H		! f116 * 1.92d-08 * (300./Tgas)**0.71
e + C2H5^+ => C2H2 + H2 + H		! f117 * 1.60d-08 * (300./Tgas)**0.71
e + C2H5^+ => C2H2 + H + H + H		! f118 * 8.98d-09 * (300./Tgas)**0.71
e + C2H5^+ => CH3 + CH2		! f119 * 9.62d-09 * (300./Tgas)**0.71
e + C2H4^+ => C2H3 + H		! f120 * 8.29d-09 * (300./Tgas)**0.71
e + C2H4^+ => C2H2 + H + H		! f121 * 3.43d-08 * (300./Tgas)**0.71
e + C2H3^+ => C2H2 + H		! f122 * 1.34d-08 * (300./Tgas)**0.71
e + C2H2^+ => CH + CH		! f123 * 4.87d-09 * (300./Tgas)**0.71
e + H2^+ => H + H		! f124 * 3.17d21/(6.022d23 * Te**4.5)
e + H3^+ => H + H2		! f125 * 3.17d21/(6.022d23 * Te**4.5)
H2 + H2^+ => H + H3^+		! f126 * 2.11d-09
C2H6 + CH4^+ => CH4 + H2 + C2H4^+		! f127 * 1.91d-9
C2H6(v24) + CH4^+ => CH4 + H2 + C2H4^+		! f127 * 1.91d-9
C2H6(v13) + CH4^+ => CH4 + H2 + C2H4^+		! f127 * 1.91d-9
C2H4 + CH4^+ => CH3 + C2H5^+		! f128 * 4.23d-10