ELEMENTS
e C H
END

SPECIES
e C CH CH^+ CH2 CH2^+ CH3 CH3^+ CH4 CH4(v13) CH4(v24) CH4^+ C2H2 C2H2(v13) C2H2(v2) C2H2(v5) C2H2^+ C2H3 C2H3^+ C2H4 C2H4(v1) C2H4(v2) C2H4^+ C2H5 C2H5^+
C2H6 C2H6(v13) C2H6(v24) C2H6^+ C3H5 C3H6 C3H6(v) C3H6^+ C3H7 C3H7^+ C3H8 C3H8(v1) C3H8(v2) C3H8^+ C4H9 C4H9H C2H C5H12 H H2 H2^+ H3^+ H^+
END

BOLSIG
CH CH2 CH3 CH4 CH4(v13) CH4(v24) C2H2 C2H2(v13) C2H2(v2) C2H2(v5) C2H3 C2H4 C2H4(v1) C2H4(v2) C2H5 C2H6 C2H6(v13) C2H6(v24) C3H6 C3H6(v) C3H7 C3H8 C3H8(v1) C3H8(v2)
END

REACTIONS
# Gas Constant
$ double precision, parameter :: R = 8.314d-3

# Compensation Parameters
$ double precision, parameter :: f0 = 6.9387d-6
$ double precision, parameter :: f1 = 1.5078d-2
$ double precision, parameter :: f2 = 6.5235d+1
$ double precision, parameter :: f3 = 2.0214d+2
$ double precision, parameter :: f4 = 1.8500d+1
$ double precision, parameter :: f5 = 8.8282d-7
$ double precision, parameter :: f6 = 1.5054d-6
$ double precision, parameter :: f7 = 4.1251d-6
$ double precision, parameter :: f8 = 1.8047d-3
$ double precision, parameter :: f9 = 2.6775d-5
$ double precision, parameter :: f10 = 3.0539d-2
$ double precision, parameter :: f11 = 3.6451d-8
$ double precision, parameter :: f12 = 2.5449d-3
$ double precision, parameter :: f13 = 2.6310d-1
$ double precision, parameter :: f14 = 1.5608d+2
$ double precision, parameter :: f15 = 1.5182d-4
$ double precision, parameter :: f16 = 1.0472d-4
$ double precision, parameter :: f17 = 3.3551d+1
$ double precision, parameter :: f18 = 5.4024d0
$ double precision, parameter :: f19 = 1.7039d+1
$ double precision, parameter :: f20 = 9.1801d0
$ double precision, parameter :: f21 = 1.8831d-8
$ double precision, parameter :: f22 = 2.0482d-8
$ double precision, parameter :: f23 = 3.0288d-1
$ double precision, parameter :: f24 = 1.2015d-2
$ double precision, parameter :: f25 = 4.2301d-5
$ double precision, parameter :: f26 = 4.8331d-4
$ double precision, parameter :: f27 = 5.0589d-4
$ double precision, parameter :: f28 = 7.8176d-4
$ double precision, parameter :: f29 = 1.5728d-3
$ double precision, parameter :: f30 = 1.3130d-6
$ double precision, parameter :: f31 = 6.2269d-4
$ double precision, parameter :: f32 = 8.7823d+1
$ double precision, parameter :: f33 = 2.2749d-8
$ double precision, parameter :: f34 = 4.2371d0
$ double precision, parameter :: f35 = 5.6903d-6
$ double precision, parameter :: f36 = 1.5727d-5
$ double precision, parameter :: f37 = 7.7565d-6
$ double precision, parameter :: f38 = 9.2238d-8
$ double precision, parameter :: f39 = 1.4752d0
$ double precision, parameter :: f40 = 5.3272d-2
$ double precision, parameter :: f41 = 7.6049d-5
$ double precision, parameter :: f42 = 6.5382d0
$ double precision, parameter :: f43 = 2.0266d0
$ double precision, parameter :: f44 = 2.5067d-2
$ double precision, parameter :: f45 = 3.2200d-6
$ double precision, parameter :: f46 = 2.1178d+1
$ double precision, parameter :: f47 = 3.3734d+1
$ double precision, parameter :: f48 = 1.4382d-2
$ double precision, parameter :: f49 = 5.4329d-8
$ double precision, parameter :: f50 = 5.8938d-6
$ double precision, parameter :: f51 = 2.4227d-6
$ double precision, parameter :: f52 = 3.2704d-3
$ double precision, parameter :: f53 = 6.0419d0
$ double precision, parameter :: f54 = 4.6802d-1
$ double precision, parameter :: f55 = 7.3754d+1
$ double precision, parameter :: f56 = 2.3260d-7
$ double precision, parameter :: f57 = 2.1676d-6
$ double precision, parameter :: f58 = 8.0508d0
$ double precision, parameter :: f59 = 8.5148d-2
$ double precision, parameter :: f60 = 4.0420d-2
$ double precision, parameter :: f61 = 5.0076d-6
$ double precision, parameter :: f62 = 9.9751d0
$ double precision, parameter :: f63 = 1.2228d+2
$ double precision, parameter :: f64 = 4.4163d-5
$ double precision, parameter :: f65 = 8.4559d-8
$ double precision, parameter :: f66 = 1.9474d-6
$ double precision, parameter :: f67 = 2.0001d0
$ double precision, parameter :: f68 = 1.7734d-6
$ double precision, parameter :: f69 = 3.1301d-2
$ double precision, parameter :: f70 = 6.8394d-6
$ double precision, parameter :: f71 = 3.1163d-5
$ double precision, parameter :: f72 = 4.4490d-3
$ double precision, parameter :: f73 = 2.0563d+2
$ double precision, parameter :: f74 = 3.0805d-8
$ double precision, parameter :: f75 = 5.9367d-5
$ double precision, parameter :: f76 = 3.5999d-4
$ double precision, parameter :: f77 = 8.0528d-3
$ double precision, parameter :: f78 = 1.2340d0
$ double precision, parameter :: f79 = 4.2581d-2
$ double precision, parameter :: f80 = 1.6082d-1
$ double precision, parameter :: f81 = 1.2034d-1
$ double precision, parameter :: f82 = 2.0379d-8
$ double precision, parameter :: f83 = 1.4551d0
$ double precision, parameter :: f84 = 8.0999d-6
$ double precision, parameter :: f85 = 1.6720d-4
$ double precision, parameter :: f86 = 2.2570d-2
$ double precision, parameter :: f87 = 1.6812d0
$ double precision, parameter :: f88 = 7.1981d-2
$ double precision, parameter :: f89 = 5.6913d-7
$ double precision, parameter :: f90 = 5.2155d-5
$ double precision, parameter :: f91 = 6.9974d-3
$ double precision, parameter :: f92 = 1.0090d-1
$ double precision, parameter :: f93 = 1.0104d-2
$ double precision, parameter :: f94 = 2.3558d-6
$ double precision, parameter :: f95 = 4.3175d-1
$ double precision, parameter :: f96 = 4.9396d-8
$ double precision, parameter :: f97 = 8.0881d-4
$ double precision, parameter :: f98 = 4.1702d-3
$ double precision, parameter :: f99 = 2.3498d-4
$ double precision, parameter :: f100 = 6.0634d-2
$ double precision, parameter :: f101 = 2.6231d-1
$ double precision, parameter :: f102 = 1.4806d-8
$ double precision, parameter :: f103 = 3.5921d-4
$ double precision, parameter :: f104 = 5.5700d0
$ double precision, parameter :: f105 = 6.6007d-8
$ double precision, parameter :: f106 = 6.4962d-3
$ double precision, parameter :: f107 = 7.3203d0
$ double precision, parameter :: f108 = 9.2929d-4
$ double precision, parameter :: f109 = 3.1182d+2
$ double precision, parameter :: f110 = 8.2713d+1
$ double precision, parameter :: f111 = 5.4887d-6
$ double precision, parameter :: f112 = 6.7792d+1
$ double precision, parameter :: f113 = 8.9073d-8
$ double precision, parameter :: f114 = 2.3932d0
$ double precision, parameter :: f115 = 1.8753d0
$ double precision, parameter :: f116 = 1.2492d-8
$ double precision, parameter :: f117 = 1.0769d-5
$ double precision, parameter :: f118 = 1.2314d-4
$ double precision, parameter :: f119 = 5.5312d-2
$ double precision, parameter :: f120 = 4.5970d+1
$ double precision, parameter :: f121 = 1.4627d-3
$ double precision, parameter :: f122 = 3.2500d0
$ double precision, parameter :: f123 = 4.9786d-7
$ double precision, parameter :: f124 = 6.5904d0
$ double precision, parameter :: f125 = 2.2036d-4
$ double precision, parameter :: f126 = 1.1347d-3
$ double precision, parameter :: f127 = 2.6880d-1
$ double precision, parameter :: f128 = 1.0275d-6
$ double precision, parameter :: f129 = 6.4127d-3
$ double precision, parameter :: f130 = 1.3091d0
$ double precision, parameter :: f131 = 2.8677d0
$ double precision, parameter :: f132 = 3.5849d-3
$ double precision, parameter :: f133 = 4.6666d-6
$ double precision, parameter :: f134 = 1.1408d-7
$ double precision, parameter :: f135 = 1.0134d-2
$ double precision, parameter :: f136 = 6.4766d-5
$ double precision, parameter :: f137 = 7.4852d0
$ double precision, parameter :: f138 = 1.6211d-8
$ double precision, parameter :: f139 = 9.9678d0
$ double precision, parameter :: f140 = 4.5201d-7
$ double precision, parameter :: f141 = 5.9117d-6
$ double precision, parameter :: f142 = 1.4176d-7
$ double precision, parameter :: f143 = 5.5270d-5
$ double precision, parameter :: f144 = 5.8035d+2
$ double precision, parameter :: f145 = 1.9326d-4
$ double precision, parameter :: f146 = 1.8109d-5
$ double precision, parameter :: f147 = 8.4001d-3
$ double precision, parameter :: f148 = 2.3218d-4
$ double precision, parameter :: f149 = 1.2000d-3
$ double precision, parameter :: f150 = 2.8447d-5
$ double precision, parameter :: f151 = 1.1963d-8
$ double precision, parameter :: f152 = 7.5279d-2
$ double precision, parameter :: f153 = 2.3282d-2
$ double precision, parameter :: f154 = 4.4382d-4
$ double precision, parameter :: f155 = 1.2137d-7
$ double precision, parameter :: f156 = 4.2046d-5
$ double precision, parameter :: f157 = 4.7422d-8
$ double precision, parameter :: f158 = 6.0444d0
$ double precision, parameter :: f159 = 5.3440d-4
$ double precision, parameter :: f160 = 8.0382d-8
$ double precision, parameter :: f161 = 6.3466d-7
$ double precision, parameter :: f162 = 3.8985d-2
$ double precision, parameter :: f163 = 1.5724d-7
$ double precision, parameter :: f164 = 2.1192d-4
$ double precision, parameter :: f165 = 6.7383d-4
$ double precision, parameter :: f166 = 2.0216d-8
$ double precision, parameter :: f167 = 5.8142d+2
$ double precision, parameter :: f168 = 1.3103d-2
$ double precision, parameter :: f169 = 1.4076d-8
$ double precision, parameter :: f170 = 3.3424d-6
$ double precision, parameter :: f171 = 9.9306d-2
$ double precision, parameter :: f172 = 2.9500d-3
$ double precision, parameter :: f173 = 1.7311d-4
$ double precision, parameter :: f174 = 4.5488d-3
$ double precision, parameter :: f175 = 3.2892d-3
$ double precision, parameter :: f176 = 3.1455d0
$ double precision, parameter :: f177 = 1.4910d+2
$ double precision, parameter :: f178 = 1.0971d-3
$ double precision, parameter :: f179 = 2.7944d-6
$ double precision, parameter :: f180 = 2.5399d+2
$ double precision, parameter :: f181 = 1.0545d-8
$ double precision, parameter :: f182 = 7.1429d+2
$ double precision, parameter :: f183 = 5.5261d-7
$ double precision, parameter :: f184 = 7.1557d-6
$ double precision, parameter :: f185 = 1.9092d-1
$ double precision, parameter :: f186 = 4.8362d-1
$ double precision, parameter :: f187 = 1.7353d-2
$ double precision, parameter :: f188 = 1.0227d-7
$ double precision, parameter :: f189 = 1.1827d-6
$ double precision, parameter :: f190 = 1.2553d-2
$ double precision, parameter :: f191 = 2.4245d-5
$ double precision, parameter :: f192 = 2.4218d-6
$ double precision, parameter :: f193 = 3.3419d+2
$ double precision, parameter :: f194 = 2.6151d-6
$ double precision, parameter :: f195 = 1.0415d-7
$ double precision, parameter :: f196 = 2.7365d-5
$ double precision, parameter :: f197 = 1.7738d-1
$ double precision, parameter :: f198 = 1.9928d-4
$ double precision, parameter :: f199 = 1.8936d-2
$ double precision, parameter :: f200 = 1.4263d-2
$ double precision, parameter :: f201 = 3.0314d-6
$ double precision, parameter :: f202 = 5.5962d+2
$ double precision, parameter :: f203 = 1.9382d-4
$ double precision, parameter :: f204 = 2.6881d-2
$ double precision, parameter :: f205 = 1.6167d-2
$ double precision, parameter :: f206 = 7.9166d-2
$ double precision, parameter :: f207 = 1.2169d-5
$ double precision, parameter :: f208 = 2.2480d-3
$ double precision, parameter :: f209 = 1.9129d+2
$ double precision, parameter :: f210 = 1.6521d-2
$ double precision, parameter :: f211 = 3.1533d-8
$ double precision, parameter :: f212 = 3.0283d+2
$ double precision, parameter :: f213 = 1.0835d-5
$ double precision, parameter :: f214 = 1.7932d-5
$ double precision, parameter :: f215 = 2.6039d-4
$ double precision, parameter :: f216 = 3.2815d-3
$ double precision, parameter :: f217 = 2.0934d0
$ double precision, parameter :: f218 = 3.3984d-3
$ double precision, parameter :: f219 = 6.2035d-1
$ double precision, parameter :: f220 = 6.1449d-3
$ double precision, parameter :: f221 = 4.6542d-5
$ double precision, parameter :: f222 = 9.2868d-7
$ double precision, parameter :: f223 = 5.3097d0
$ double precision, parameter :: f224 = 4.0726d-1
$ double precision, parameter :: f225 = 7.8732d+2
$ double precision, parameter :: f226 = 1.0613d-4
$ double precision, parameter :: f227 = 6.4854d-3
$ double precision, parameter :: f228 = 9.0737d-3
$ double precision, parameter :: f229 = 1.0628d0
$ double precision, parameter :: f230 = 6.9465d-3
$ double precision, parameter :: f231 = 1.4373d-7
$ double precision, parameter :: f232 = 9.0210d-8
$ double precision, parameter :: f233 = 1.5538d-7
$ double precision, parameter :: f234 = 5.9624d+1
$ double precision, parameter :: f235 = 1.7300d-3
$ double precision, parameter :: f236 = 5.4832d-5
$ double precision, parameter :: f237 = 1.3524d-7
$ double precision, parameter :: f238 = 2.5650d+2
$ double precision, parameter :: f239 = 1.4018d-8
$ double precision, parameter :: f240 = 1.1468d-2
$ double precision, parameter :: f241 = 5.4226d-5
$ double precision, parameter :: f242 = 2.4174d-4
$ double precision, parameter :: f243 = 4.4048d-1
$ double precision, parameter :: f244 = 1.2836d0
$ double precision, parameter :: f245 = 1.6965d-8
$ double precision, parameter :: f246 = 1.2555d0
$ double precision, parameter :: f247 = 1.5590d+2
$ double precision, parameter :: f248 = 7.7658d-2
$ double precision, parameter :: f249 = 1.6750d+1
$ double precision, parameter :: f250 = 1.0222d-1
$ double precision, parameter :: f251 = 5.0440d+1
$ double precision, parameter :: f252 = 9.0957d0
$ double precision, parameter :: f253 = 1.8480d-8
$ double precision, parameter :: f254 = 8.6854d+1
$ double precision, parameter :: f255 = 7.9204d-1
$ double precision, parameter :: f256 = 2.3474d-6
$ double precision, parameter :: f257 = 1.0093d-5
$ double precision, parameter :: f258 = 7.1550d-8
$ double precision, parameter :: f259 = 3.3287d-6
$ double precision, parameter :: f260 = 8.7182d+1
$ double precision, parameter :: f261 = 1.1447d-7
$ double precision, parameter :: f262 = 5.0689d+2
$ double precision, parameter :: f263 = 9.3638d-4
$ double precision, parameter :: f264 = 2.1879d0
$ double precision, parameter :: f265 = 7.4994d-2
$ double precision, parameter :: f266 = 5.5864d-6
$ double precision, parameter :: f267 = 5.6557d-1
$ double precision, parameter :: f268 = 6.5314d+2
$ double precision, parameter :: f269 = 1.1583d-4
$ double precision, parameter :: f270 = 3.7082d-1
$ double precision, parameter :: f271 = 1.1359d-1
$ double precision, parameter :: f272 = 5.5047d-2
$ double precision, parameter :: f273 = 5.4840d-8
$ double precision, parameter :: f274 = 9.0598d-1
$ double precision, parameter :: f275 = 3.0838d-4
$ double precision, parameter :: f276 = 1.0356d+1
$ double precision, parameter :: f277 = 1.0944d+1
$ double precision, parameter :: f278 = 2.1054d-6
$ double precision, parameter :: f279 = 3.3095d0
$ double precision, parameter :: f280 = 9.3778d-4
$ double precision, parameter :: f281 = 5.2586d-7
$ double precision, parameter :: f282 = 7.1755d-2
$ double precision, parameter :: f283 = 1.1880d-2
$ double precision, parameter :: f284 = 5.0623d-1
$ double precision, parameter :: f285 = 9.3508d-4
$ double precision, parameter :: f286 = 1.4168d-7
$ double precision, parameter :: f287 = 4.2825d-6
$ double precision, parameter :: f288 = 6.9532d+1
$ double precision, parameter :: f289 = 5.7295d-3
$ double precision, parameter :: f290 = 2.0953d-3
$ double precision, parameter :: f291 = 1.1695d-8
$ double precision, parameter :: f292 = 6.0072d+2
$ double precision, parameter :: f293 = 2.2328d-2
$ double precision, parameter :: f294 = 1.0695d-7
$ double precision, parameter :: f295 = 2.4279d0
$ double precision, parameter :: f296 = 7.7836d-3
$ double precision, parameter :: f297 = 7.1482d-3
$ double precision, parameter :: f298 = 2.9000d-2
$ double precision, parameter :: f299 = 1.7284d-3
$ double precision, parameter :: f300 = 1.0198d-3
$ double precision, parameter :: f301 = 1.1048d-4
$ double precision, parameter :: f302 = 7.4790d-1
$ double precision, parameter :: f303 = 4.4420d-8
$ double precision, parameter :: f304 = 2.3351d+1
$ double precision, parameter :: f305 = 1.0537d-3
$ double precision, parameter :: f306 = 1.9307d-5
$ double precision, parameter :: f307 = 6.5653d-1
$ double precision, parameter :: f308 = 1.0329d-5
$ double precision, parameter :: f309 = 2.0274d-6
$ double precision, parameter :: f310 = 6.2917d-1
$ double precision, parameter :: f311 = 4.2578d-4
$ double precision, parameter :: f312 = 1.2035d-4
$ double precision, parameter :: f313 = 3.2675d-8
$ double precision, parameter :: f314 = 1.9391d-7
$ double precision, parameter :: f315 = 2.9547d-4

# Electron Collision Reaction
e + CH4 => e + CH4(v24)		! f0 * Bolsig+ CH4 -> CH4(v24)
e + CH4 => e + CH4(v13)		! f1 * Bolsig+ CH4 -> CH4(v13)
e + C2H6 => e + C2H6(v24)		! f2 * Bolsig+ C2H6 -> C2H6(v24)
e + C2H6 => e + C2H6(v13)		! f3 * Bolsig+ C2H6 -> C2H6(v13)
e + C2H4 => e + C2H4(v1)		! f4 * Bolsig+ C2H4 -> C2H4(v1)
e + C2H4 => e + C2H4(v2)		! f5 * Bolsig+ C2H4 -> C2H4(v2)
e + C2H2 => e + C2H2(v5)		! f6 * Bolsig+ C2H2 -> C2H2(v5)
e + C2H2 => e + C2H2(v2)		! f7 * Bolsig+ C2H2 -> C2H2(v2)
e + C2H2 => e + C2H2(v13)		! f8 * Bolsig+ C2H2 -> C2H2(v13)
e + C3H8 => e + C3H8(v1)		! f9 * Bolsig+ C3H8 -> C3H8(v1)
e + C3H8 => e + C3H8(v2)		! f10 * Bolsig+ C3H8 -> C3H8(v2)
e + C3H6 => e + C3H6(v)		! f11 * Bolsig+ C3H6 -> C3H6(v)
e + CH4 => e + CH3 + H		! f12 * Bolsig+ CH4 -> CH3 H
e + CH4(v24) => e + CH3 + H		! f12 * Bolsig+ CH4(v24) -> CH3 H
e + CH4(v13) => e + CH3 + H		! f12 * Bolsig+ CH4(v13) -> CH3 H
e + CH4 => e + CH2 + H2		! f13 * Bolsig+ CH4 -> CH2 H2
e + CH4(v24) => e + CH2 + H2		! f13 * Bolsig+ CH4(v24) -> CH2 H2
e + CH4(v13) => e + CH2 + H2		! f13 * Bolsig+ CH4(v13) -> CH2 H2
e + CH4 => e + CH + H2 + H		! f14 * Bolsig+ CH4 -> CH H2 H
e + CH4(v24) => e + CH + H2 + H		! f14 * Bolsig+ CH4(v24) -> CH H2 H
e + CH4(v13) => e + CH + H2 + H		! f14 * Bolsig+ CH4(v13) -> CH H2 H
e + CH4 => e + C + H2 + H2		! f15 * Bolsig+ CH4 -> C H2 H2
e + CH4(v24) => e + C + H2 + H2		! f15 * Bolsig+ CH4(v24) -> C H2 H2
e + CH4(v13) => e + C + H2 + H2		! f15 * Bolsig+ CH4(v13) -> C H2 H2
e + CH3 => e + CH2 + H		! f16 * Bolsig+ CH3 -> CH2 H
e + CH3 => e + CH + H2		! f17 * Bolsig+ CH3 -> CH H2
e + CH3 => e + C + H2 + H		! f18 * Bolsig+ CH3 -> C H2 H
e + CH2 => e + CH + H		! f19 * Bolsig+ CH2 -> CH H
e + CH2 => e + C + H2		! f20 * Bolsig+ CH2 -> C H2
e + CH2 => e + C + H + H		! f21 * Bolsig+ CH2 -> C H H
e + CH => e + C + H		! f22 * Bolsig+ CH -> C H
e + CH4 => e + e + CH4^+		! f23 * Bolsig+ CH4 -> CH4^+
e + CH4(v24) => e + e + CH4^+		! f23 * Bolsig+ CH4(v24) -> CH4^+
e + CH4(v13) => e + e + CH4^+		! f23 * Bolsig+ CH4(v13) -> CH4^+
e + CH4 => e + e + H + CH3^+		! f24 * Bolsig+ CH4 -> H CH3^+
e + CH4(v24) => e + e + H + CH3^+		! f24 * Bolsig+ CH4(v24) -> H CH3^+
e + CH4(v13) => e + e + H + CH3^+		! f24 * Bolsig+ CH4(v13) -> H CH3^+
e + CH4 => e + e + H2 + CH2^+		! f25 * Bolsig+ CH4 -> H2 CH2^+
e + CH4(v24) => e + e + H2 + CH2^+		! f25 * Bolsig+ CH4(v24) -> H2 CH2^+
e + CH4(v13) => e + e + H2 + CH2^+		! f25 * Bolsig+ CH4(v13) -> H2 CH2^+
e + CH4 => e + e + H2 + H + CH^+		! f26 * Bolsig+ CH4 -> H2 H CH^+
e + CH4(v24) => e + e + H2 + H + CH^+		! f26 * Bolsig+ CH4(v24) -> H2 H CH^+
e + CH4(v13) => e + e + H2 + H + CH^+		! f26 * Bolsig+ CH4(v13) -> H2 H CH^+
e + CH3 => e + e + CH3^+		! f27 * Bolsig+ CH3 -> CH3^+
e + CH3 => e + e + H + CH2^+		! f28 * Bolsig+ CH3 -> H CH2^+
e + CH3 => e + e + H2 + CH^+		! f29 * Bolsig+ CH3 -> H2 CH^+
e + CH2 => e + e + CH2^+		! f30 * Bolsig+ CH2 -> CH2^+
e + CH2 => e + e + H + CH^+		! f31 * Bolsig+ CH2 -> H CH^+
e + CH => e + e + CH^+		! f32 * Bolsig+ CH -> CH^+
e + C2H6 => e + C2H5 + H		! f33 * Bolsig+ C2H6 -> C2H5 H
e + C2H6(v24) => e + C2H5 + H		! f33 * Bolsig+ C2H6(v24) -> C2H5 H
e + C2H6(v13) => e + C2H5 + H		! f33 * Bolsig+ C2H6(v13) -> C2H5 H
e + C2H6 => e + C2H4 + H2		! f34 * Bolsig+ C2H6 -> C2H4 H2
e + C2H6(v24) => e + C2H4 + H2		! f34 * Bolsig+ C2H6(v24) -> C2H4 H2
e + C2H6(v13) => e + C2H4 + H2		! f34 * Bolsig+ C2H6(v13) -> C2H4 H2
e + C2H6 => e + C2H3 + H2 + H		! f35 * Bolsig+ C2H6 -> C2H3 H2 H
e + C2H6(v24) => e + C2H3 + H2 + H		! f35 * Bolsig+ C2H6(v24) -> C2H3 H2 H
e + C2H6(v13) => e + C2H3 + H2 + H		! f35 * Bolsig+ C2H6(v13) -> C2H3 H2 H
e + C2H6 => e + C2H2 + H2 + H2		! f36 * Bolsig+ C2H6 -> C2H2 H2 H2
e + C2H6(v24) => e + C2H2 + H2 + H2		! f36 * Bolsig+ C2H6(v24) -> C2H2 H2 H2
e + C2H6(v13) => e + C2H2 + H2 + H2		! f36 * Bolsig+ C2H6(v13) -> C2H2 H2 H2
e + C2H6 => e + CH4 + CH2		! f37 * Bolsig+ C2H6 -> CH4 CH2
e + C2H6(v24) => e + CH4 + CH2		! f37 * Bolsig+ C2H6(v24) -> CH4 CH2
e + C2H6(v13) => e + CH4 + CH2		! f37 * Bolsig+ C2H6(v13) -> CH4 CH2
e + C2H6 => e + CH3 + CH3		! f38 * Bolsig+ C2H6 -> CH3 CH3
e + C2H6(v24) => e + CH3 + CH3		! f38 * Bolsig+ C2H6(v24) -> CH3 CH3
e + C2H6(v13) => e + CH3 + CH3		! f38 * Bolsig+ C2H6(v13) -> CH3 CH3
e + C2H5 => e + C2H4 + H		! f39 * Bolsig+ C2H5 -> C2H4 H
e + C2H5 => e + C2H3 + H2		! f40 * Bolsig+ C2H5 -> C2H3 H2
e + C2H5 => e + C2H3 + H + H		! f41 * Bolsig+ C2H5 -> C2H3 H H
e + C2H5 => e + C2H2 + H2 + H		! f42 * Bolsig+ C2H5 -> C2H2 H2 H
e + C2H5 => e + CH4 + CH		! f43 * Bolsig+ C2H5 -> CH4 CH
e + C2H5 => e + CH3 + CH2		! f44 * Bolsig+ C2H5 -> CH3 CH2
e + C2H4 => e + C2H3 + H		! f45 * Bolsig+ C2H4 -> C2H3 H
e + C2H4(v1) => e + C2H3 + H		! f45 * Bolsig+ C2H4(v1) -> C2H3 H
e + C2H4(v2) => e + C2H3 + H		! f45 * Bolsig+ C2H4(v2) -> C2H3 H
e + C2H4 => e + C2H2 + H2		! f46 * Bolsig+ C2H4 -> C2H2 H2
e + C2H4(v1) => e + C2H2 + H2		! f46 * Bolsig+ C2H4(v1) -> C2H2 H2
e + C2H4(v2) => e + C2H2 + H2		! f46 * Bolsig+ C2H4(v2) -> C2H2 H2
e + C2H4 => e + C2H2 + H + H		! f47 * Bolsig+ C2H4 -> C2H2 H H
e + C2H4(v1) => e + C2H2 + H + H		! f47 * Bolsig+ C2H4(v1) -> C2H2 H H
e + C2H4(v2) => e + C2H2 + H + H		! f47 * Bolsig+ C2H4(v2) -> C2H2 H H
e + C2H4 => e + CH3 + CH		! f48 * Bolsig+ C2H4 -> CH3 CH
e + C2H4(v1) => e + CH3 + CH		! f48 * Bolsig+ C2H4(v1) -> CH3 CH
e + C2H4(v2) => e + CH3 + CH		! f48 * Bolsig+ C2H4(v2) -> CH3 CH
e + C2H4 => e + CH2 + CH2		! f49 * Bolsig+ C2H4 -> CH2 CH2
e + C2H4(v1) => e + CH2 + CH2		! f49 * Bolsig+ C2H4(v1) -> CH2 CH2
e + C2H4(v2) => e + CH2 + CH2		! f49 * Bolsig+ C2H4(v2) -> CH2 CH2
e + C2H3 => e + C2H2 + H		! f50 * Bolsig+ C2H3 -> C2H2 H
e + C2H3 => e + CH2 + CH		! f51 * Bolsig+ C2H3 -> CH2 CH
e + C2H2 => e + CH + CH		! f52 * Bolsig+ C2H2 -> CH CH
e + C2H2(v5) => e + CH + CH		! f52 * Bolsig+ C2H2(v5) -> CH CH
e + C2H2(v2) => e + CH + CH		! f52 * Bolsig+ C2H2(v2) -> CH CH
e + C2H2(v13) => e + CH + CH		! f52 * Bolsig+ C2H2(v13) -> CH CH
e + C2H6 => e + e + C2H6^+		! f53 * Bolsig+ C2H6 -> C2H6^+
e + C2H6(v24) => e + e + C2H6^+		! f53 * Bolsig+ C2H6(v24) -> C2H6^+
e + C2H6(v13) => e + e + C2H6^+		! f53 * Bolsig+ C2H6(v13) -> C2H6^+
e + C2H6 => e + e + H + C2H5^+		! f54 * Bolsig+ C2H6 -> H C2H5^+
e + C2H6(v24) => e + e + H + C2H5^+		! f54 * Bolsig+ C2H6(v24) -> H C2H5^+
e + C2H6(v13) => e + e + H + C2H5^+		! f54 * Bolsig+ C2H6(v13) -> H C2H5^+
e + C2H6 => e + e + H2 + C2H4^+		! f55 * Bolsig+ C2H6 -> H2 C2H4^+
e + C2H6(v24) => e + e + H2 + C2H4^+		! f55 * Bolsig+ C2H6(v24) -> H2 C2H4^+
e + C2H6(v13) => e + e + H2 + C2H4^+		! f55 * Bolsig+ C2H6(v13) -> H2 C2H4^+
e + C2H6 => e + e + H2 + H + C2H3^+		! f56 * Bolsig+ C2H6 -> H2 H C2H3^+
e + C2H6(v24) => e + e + H2 + H + C2H3^+		! f56 * Bolsig+ C2H6(v24) -> H2 H C2H3^+
e + C2H6(v13) => e + e + H2 + H + C2H3^+		! f56 * Bolsig+ C2H6(v13) -> H2 H C2H3^+
e + C2H6 => e + e + H2 + H2 + C2H2^+		! f57 * Bolsig+ C2H6 -> H2 H2 C2H2^+
e + C2H6(v24) => e + e + H2 + H2 + C2H2^+		! f57 * Bolsig+ C2H6(v24) -> H2 H2 C2H2^+
e + C2H6(v13) => e + e + H2 + H2 + C2H2^+		! f57 * Bolsig+ C2H6(v13) -> H2 H2 C2H2^+
e + C2H6 => e + e + CH3 + CH3^+		! f58 * Bolsig+ C2H6 -> CH3 CH3^+
e + C2H6(v24) => e + e + CH3 + CH3^+		! f58 * Bolsig+ C2H6(v24) -> CH3 CH3^+
e + C2H6(v13) => e + e + CH3 + CH3^+		! f58 * Bolsig+ C2H6(v13) -> CH3 CH3^+
e + C2H6 => e + e + CH4 + CH2^+		! f59 * Bolsig+ C2H6 -> CH4 CH2^+
e + C2H6(v24) => e + e + CH4 + CH2^+		! f59 * Bolsig+ C2H6(v24) -> CH4 CH2^+
e + C2H6(v13) => e + e + CH4 + CH2^+		! f59 * Bolsig+ C2H6(v13) -> CH4 CH2^+
e + C2H5 => e + e + C2H5^+		! f60 * Bolsig+ C2H5 -> C2H5^+
e + C2H5 => e + e + H + C2H4^+		! f61 * Bolsig+ C2H5 -> H C2H4^+
e + C2H5 => e + e + H2 + C2H3^+		! f62 * Bolsig+ C2H5 -> H2 C2H3^+
e + C2H5 => e + e + H2 + H + C2H2^+		! f63 * Bolsig+ C2H5 -> H2 H C2H2^+
e + C2H5 => e + e + CH2 + CH3^+		! f64 * Bolsig+ C2H5 -> CH2 CH3^+
e + C2H5 => e + e + CH3 + CH2^+		! f65 * Bolsig+ C2H5 -> CH3 CH2^+
e + C2H5 => e + e + CH4 + CH^+		! f66 * Bolsig+ C2H5 -> CH4 CH^+
e + C2H4 => e + e + C2H4^+		! f67 * Bolsig+ C2H4 -> C2H4^+
e + C2H4(v1) => e + e + C2H4^+		! f67 * Bolsig+ C2H4(v1) -> C2H4^+
e + C2H4(v2) => e + e + C2H4^+		! f67 * Bolsig+ C2H4(v2) -> C2H4^+
e + C2H4 => e + e + H + C2H3^+		! f68 * Bolsig+ C2H4 -> H C2H3^+
e + C2H4(v1) => e + e + H + C2H3^+		! f68 * Bolsig+ C2H4(v1) -> H C2H3^+
e + C2H4(v2) => e + e + H + C2H3^+		! f68 * Bolsig+ C2H4(v2) -> H C2H3^+
e + C2H4 => e + e + CH + CH3^+		! f69 * Bolsig+ C2H4 -> CH CH3^+
e + C2H4(v1) => e + e + CH + CH3^+		! f69 * Bolsig+ C2H4(v1) -> CH CH3^+
e + C2H4(v2) => e + e + CH + CH3^+		! f69 * Bolsig+ C2H4(v2) -> CH CH3^+
e + C2H4 => e + e + CH2 + CH2^+		! f70 * Bolsig+ C2H4 -> CH2 CH2^+
e + C2H4(v1) => e + e + CH2 + CH2^+		! f70 * Bolsig+ C2H4(v1) -> CH2 CH2^+
e + C2H4(v2) => e + e + CH2 + CH2^+		! f70 * Bolsig+ C2H4(v2) -> CH2 CH2^+
e + C2H4 => e + e + CH3 + CH^+		! f71 * Bolsig+ C2H4 -> CH3 CH^+
e + C2H4(v1) => e + e + CH3 + CH^+		! f71 * Bolsig+ C2H4(v1) -> CH3 CH^+
e + C2H4(v2) => e + e + CH3 + CH^+		! f71 * Bolsig+ C2H4(v2) -> CH3 CH^+
e + C2H3 => e + e + C2H3^+		! f72 * Bolsig+ C2H3 -> C2H3^+
e + C2H3 => e + e + H + C2H2^+		! f73 * Bolsig+ C2H3 -> H C2H2^+
e + C2H3 => e + e + CH + CH2^+		! f74 * Bolsig+ C2H3 -> CH CH2^+
e + C2H3 => e + e + CH2 + CH^+		! f75 * Bolsig+ C2H3 -> CH2 CH^+
e + C2H3 => e + e + C2H2 + H^+		! f76 * Bolsig+ C2H3 -> C2H2 H^+
e + C2H2 => e + e + C2H2^+		! f77 * Bolsig+ C2H2 -> C2H2^+
e + C2H2(v5) => e + e + C2H2^+		! f77 * Bolsig+ C2H2(v5) -> C2H2^+
e + C2H2(v2) => e + e + C2H2^+		! f77 * Bolsig+ C2H2(v2) -> C2H2^+
e + C2H2(v13) => e + e + C2H2^+		! f77 * Bolsig+ C2H2(v13) -> C2H2^+
e + C2H2 => e + e + CH + CH^+		! f78 * Bolsig+ C2H2 -> CH CH^+
e + C2H2(v5) => e + e + CH + CH^+		! f78 * Bolsig+ C2H2(v5) -> CH CH^+
e + C2H2(v2) => e + e + CH + CH^+		! f78 * Bolsig+ C2H2(v2) -> CH CH^+
e + C2H2(v13) => e + e + CH + CH^+		! f78 * Bolsig+ C2H2(v13) -> CH CH^+
e + C3H8 => e + C3H7 + H		! f79 * Bolsig+ C3H8 -> C3H7 H
e + C3H8(v1) => e + C3H7 + H		! f79 * Bolsig+ C3H8(v1) -> C3H7 H
e + C3H8(v2) => e + C3H7 + H		! f79 * Bolsig+ C3H8(v2) -> C3H7 H
e + C3H8 => e + C3H6 + H2		! f80 * Bolsig+ C3H8 -> C3H6 H2
e + C3H8(v1) => e + C3H6 + H2		! f80 * Bolsig+ C3H8(v1) -> C3H6 H2
e + C3H8(v2) => e + C3H6 + H2		! f80 * Bolsig+ C3H8(v2) -> C3H6 H2
e + C3H7 => e + C3H6 + H		! f81 * Bolsig+ C3H7 -> C3H6 H
e + C3H8 => e + e + C3H8^+		! f82 * Bolsig+ C3H8 -> C3H8^+
e + C3H8(v1) => e + e + C3H8^+		! f82 * Bolsig+ C3H8(v1) -> C3H8^+
e + C3H8(v2) => e + e + C3H8^+		! f82 * Bolsig+ C3H8(v2) -> C3H8^+
e + C3H8 => e + e + H + C3H7^+		! f83 * Bolsig+ C3H8 -> H C3H7^+
e + C3H8(v1) => e + e + H + C3H7^+		! f83 * Bolsig+ C3H8(v1) -> H C3H7^+
e + C3H8(v2) => e + e + H + C3H7^+		! f83 * Bolsig+ C3H8(v2) -> H C3H7^+
e + C3H8 => e + e + H2 + C3H6^+		! f84 * Bolsig+ C3H8 -> H2 C3H6^+
e + C3H8(v1) => e + e + H2 + C3H6^+		! f84 * Bolsig+ C3H8(v1) -> H2 C3H6^+
e + C3H8(v2) => e + e + H2 + C3H6^+		! f84 * Bolsig+ C3H8(v2) -> H2 C3H6^+
e + C3H7 => e + e + C3H7^+		! f85 * Bolsig+ C3H7 -> C3H7^+
e + C3H7 => e + e + H + C3H6^+		! f86 * Bolsig+ C3H7 -> H C3H6^+
e + C3H6 => e + e + C3H6^+		! f87 * Bolsig+ C3H6 -> C3H6^+
e + C3H6(v) => e + e + C3H6^+		! f87 * Bolsig+ C3H6(v) -> C3H6^+
e + C3H6 => e + C2H2 + CH4		! f88 * Bolsig+ C3H6 -> C2H2 CH4
e + C3H6(v) => e + C2H2 + CH4		! f88 * Bolsig+ C3H6(v) -> C2H2 CH4
e + C3H6 => e + e + C2H2 + CH4^+		! f89 * Bolsig+ C3H6 -> C2H2 CH4^+
e + C3H6(v) => e + e + C2H2 + CH4^+		! f89 * Bolsig+ C3H6(v) -> C2H2 CH4^+

# Ion Recombination Reaction
e + e + CH^+ => e + CH		! f90 * 1.00d0
e + e + CH2^+ => e + CH2		! f91 * 1.00d0
e + e + CH3^+ => e + CH3		! f92 * 1.00d0
e + e + CH4^+ => e + CH4		! f93 * 1.00d0
e + e + C2H2^+ => e + C2H2		! f94 * 1.00d0
e + e + C2H3^+ => e + C2H3		! f95 * 1.00d0
e + e + C2H4^+ => e + C2H4		! f96 * 1.00d0
e + e + C2H5^+ => e + C2H5		! f97 * 1.00d0
e + e + C2H6^+ => e + C2H6		! f98 * 1.00d0
e + e + C3H6^+ => e + C3H6		! f99 * 1.00d0
e + e + C3H7^+ => e + C3H7		! f100 * 1.00d0
e + e + C3H8^+ => e + C3H8		! f101 * 1.00d0

# Gas Phase Reaction
e + CH4^+ => CH3 + H		! f102 * 1.18d-08 * (300./Tgas)**0.5
e + CH4^+ => CH2 + H + H		! f103 * 2.42d-08 * (300./Tgas)**0.5
e + CH4^+ => CH + H2 + H		! f104 * 1.41d-08 * (300./Tgas)**0.5
e + CH3^+ => CH2 + H		! f105 * 2.25d-08 * (300./Tgas)**0.5
e + CH3^+ => CH + H2		! f106 * 7.88d-09 * (300./Tgas)**0.5
e + CH3^+ => CH + H + H		! f107 * 9.00d-09 * (300./Tgas)**0.5
e + CH3^+ => C + H2 + H		! f108 * 1.69d-08 * (300./Tgas)**0.5
e + CH2^+ => CH + H		! f109 * 1.00d-08 * (300./Tgas)**0.5
e + CH2^+ => C + H2		! f110 * 4.82d-09 * (300./Tgas)**0.5
e + CH2^+ => C + H + H		! f111 * 2.53d-08 * (300./Tgas)**0.5
e + CH^+ => C + H		! f112 * 3.23d-08 * (300./Tgas)**0.42
e + C2H6^+ => C2H5 + H		! f113 * 2.19d-08 * (300./Tgas)**0.71
e + C2H6^+ => C2H4 + H + H		! f114 * 3.36d-08 * (300./Tgas)**0.71
e + C2H5^+ => C2H4 + H		! f115 * 7.70d-09 * (300./Tgas)**0.71
e + C2H5^+ => C2H3 + H + H		! f116 * 1.92d-08 * (300./Tgas)**0.71
e + C2H5^+ => C2H2 + H2 + H		! f117 * 1.60d-08 * (300./Tgas)**0.71
e + C2H5^+ => C2H2 + H + H + H		! f118 * 8.98d-09 * (300./Tgas)**0.71
e + C2H5^+ => CH3 + CH2		! f119 * 9.62d-09 * (300./Tgas)**0.71
e + C2H4^+ => C2H3 + H		! f120 * 8.29d-09 * (300./Tgas)**0.71
e + C2H4^+ => C2H2 + H + H		! f121 * 3.43d-08 * (300./Tgas)**0.71
e + C2H3^+ => C2H2 + H		! f122 * 1.34d-08 * (300./Tgas)**0.71
e + C2H2^+ => CH + CH		! f123 * 4.87d-09 * (300./Tgas)**0.71
e + H2^+ => H + H		! f124 * 3.17d21/(6.022d23 * Te**4.5)
e + H3^+ => H + H2		! f125 * 3.17d21/(6.022d23 * Te**4.5)
H2 + H2^+ => H + H3^+		! f126 * 2.11d-09
C2H6 + CH4^+ => CH4 + H2 + C2H4^+		! f127 * 1.91d-9
C2H6(v24) + CH4^+ => CH4 + H2 + C2H4^+		! f127 * 1.91d-9
C2H6(v13) + CH4^+ => CH4 + H2 + C2H4^+		! f127 * 1.91d-9
C2H4 + CH4^+ => CH3 + C2H5^+		! f128 * 4.23d-10