ELEMENTS
e C H
END

SPECIES
e C CH CH^+ CH2 CH2^+ CH3 CH3^+ CH4 CH4(v13) CH4(v24) CH4^+ C2H2 C2H2(v13) C2H2(v2) C2H2(v5) C2H2^+ C2H3 C2H3^+ C2H4 C2H4(v1) C2H4(v2) C2H4^+ C2H5 C2H5^+
C2H6 C2H6(v13) C2H6(v24) C2H6^+ C3H5 C3H6 C3H6(v) C3H6^+ C3H7 C3H7^+ C3H8 C3H8(v1) C3H8(v2) C3H8^+ C4H9 C4H9H C2H C5H12 H H2 H2^+ H3^+ H^+
END

BOLSIG
CH CH2 CH3 CH4 CH4(v13) CH4(v24) C2H2 C2H2(v13) C2H2(v2) C2H2(v5) C2H3 C2H4 C2H4(v1) C2H4(v2) C2H5 C2H6 C2H6(v13) C2H6(v24) C3H6 C3H6(v) C3H7 C3H8 C3H8(v1) C3H8(v2)
END

REACTIONS
# Gas Constant
$ double precision, parameter :: R = 8.314d-3

# Compensation Parameters
$ double precision, parameter :: f0 = 2.0254d-2
$ double precision, parameter :: f1 = 1.0196d-3
$ double precision, parameter :: f2 = 3.1753d-8
$ double precision, parameter :: f3 = 7.5292d-1
$ double precision, parameter :: f4 = 6.8799d-7
$ double precision, parameter :: f5 = 3.7819d-1
$ double precision, parameter :: f6 = 1.9290d+2
$ double precision, parameter :: f7 = 1.2657d-7
$ double precision, parameter :: f8 = 3.9319d-6
$ double precision, parameter :: f9 = 7.0931d0
$ double precision, parameter :: f10 = 2.2157d-4
$ double precision, parameter :: f11 = 8.9647d-4
$ double precision, parameter :: f12 = 4.2597d-8
$ double precision, parameter :: f13 = 4.3982d-7
$ double precision, parameter :: f14 = 5.1451d-1
$ double precision, parameter :: f15 = 6.0271d-1
$ double precision, parameter :: f16 = 1.3725d-3
$ double precision, parameter :: f17 = 3.5847d+2
$ double precision, parameter :: f18 = 3.6803d0
$ double precision, parameter :: f19 = 5.4825d-8
$ double precision, parameter :: f20 = 3.5241d-6
$ double precision, parameter :: f21 = 2.9213d+2
$ double precision, parameter :: f22 = 7.8074d0
$ double precision, parameter :: f23 = 2.4186d-1
$ double precision, parameter :: f24 = 2.6938d-7
$ double precision, parameter :: f25 = 6.6298d-2
$ double precision, parameter :: f26 = 2.4752d-5
$ double precision, parameter :: f27 = 9.9509d+2
$ double precision, parameter :: f28 = 1.7658d+2
$ double precision, parameter :: f29 = 2.2218d-8
$ double precision, parameter :: f30 = 5.1308d-8
$ double precision, parameter :: f31 = 3.7943d0
$ double precision, parameter :: f32 = 1.2209d+2
$ double precision, parameter :: f33 = 3.8084d+2
$ double precision, parameter :: f34 = 8.3364d0
$ double precision, parameter :: f35 = 1.7590d-6
$ double precision, parameter :: f36 = 9.8449d+2
$ double precision, parameter :: f37 = 3.0124d-6
$ double precision, parameter :: f38 = 1.0790d-8
$ double precision, parameter :: f39 = 1.0678d-1
$ double precision, parameter :: f40 = 2.2060d+1
$ double precision, parameter :: f41 = 9.6066d-1
$ double precision, parameter :: f42 = 7.9726d+2
$ double precision, parameter :: f43 = 8.0400d-2
$ double precision, parameter :: f44 = 3.2746d-1
$ double precision, parameter :: f45 = 1.1805d+1
$ double precision, parameter :: f46 = 5.9964d-8
$ double precision, parameter :: f47 = 1.8558d-4
$ double precision, parameter :: f48 = 9.8629d-5
$ double precision, parameter :: f49 = 9.2527d-5
$ double precision, parameter :: f50 = 2.3647d0
$ double precision, parameter :: f51 = 2.5841d+1
$ double precision, parameter :: f52 = 4.5679d-4
$ double precision, parameter :: f53 = 4.6855d-6
$ double precision, parameter :: f54 = 1.1442d-3
$ double precision, parameter :: f55 = 1.9112d+2
$ double precision, parameter :: f56 = 7.9125d-8
$ double precision, parameter :: f57 = 2.0018d-1
$ double precision, parameter :: f58 = 2.2322d-7
$ double precision, parameter :: f59 = 2.7019d-2
$ double precision, parameter :: f60 = 2.2114d-8
$ double precision, parameter :: f61 = 5.1435d0
$ double precision, parameter :: f62 = 4.5112d-4
$ double precision, parameter :: f63 = 4.4063d-3
$ double precision, parameter :: f64 = 2.2003d-8
$ double precision, parameter :: f65 = 9.9721d-8
$ double precision, parameter :: f66 = 1.2727d-2
$ double precision, parameter :: f67 = 2.7595d+1
$ double precision, parameter :: f68 = 9.5974d-8
$ double precision, parameter :: f69 = 1.0687d-3
$ double precision, parameter :: f70 = 2.1436d-8
$ double precision, parameter :: f71 = 5.6589d+2
$ double precision, parameter :: f72 = 9.8692d-1
$ double precision, parameter :: f73 = 1.2323d-5
$ double precision, parameter :: f74 = 6.1982d-1
$ double precision, parameter :: f75 = 2.1053d0
$ double precision, parameter :: f76 = 5.1557d-3
$ double precision, parameter :: f77 = 7.2481d-7
$ double precision, parameter :: f78 = 2.1046d-5
$ double precision, parameter :: f79 = 6.1279d-2
$ double precision, parameter :: f80 = 4.2902d+2
$ double precision, parameter :: f81 = 5.2214d-5
$ double precision, parameter :: f82 = 1.6384d0
$ double precision, parameter :: f83 = 7.1204d+1
$ double precision, parameter :: f84 = 1.1126d-1
$ double precision, parameter :: f85 = 5.5490d-2
$ double precision, parameter :: f86 = 1.9458d+2
$ double precision, parameter :: f87 = 3.7312d+1
$ double precision, parameter :: f88 = 3.6231d+2
$ double precision, parameter :: f89 = 1.3108d-8
$ double precision, parameter :: f90 = 1.9343d-6
$ double precision, parameter :: f91 = 9.7987d-4
$ double precision, parameter :: f92 = 8.8463d+2
$ double precision, parameter :: f93 = 1.1391d-1
$ double precision, parameter :: f94 = 4.5121d+1
$ double precision, parameter :: f95 = 6.6879d-5
$ double precision, parameter :: f96 = 7.3066d-6
$ double precision, parameter :: f97 = 3.1270d-6
$ double precision, parameter :: f98 = 5.8263d-6
$ double precision, parameter :: f99 = 8.2209d+2
$ double precision, parameter :: f100 = 3.4481d-2
$ double precision, parameter :: f101 = 4.5411d-6
$ double precision, parameter :: f102 = 4.3521d-3
$ double precision, parameter :: f103 = 6.4184d0
$ double precision, parameter :: f104 = 3.4278d+2
$ double precision, parameter :: f105 = 3.1788d-6
$ double precision, parameter :: f106 = 3.0691d0
$ double precision, parameter :: f107 = 3.8845d-1
$ double precision, parameter :: f108 = 2.7592d-1
$ double precision, parameter :: f109 = 5.9004d-1
$ double precision, parameter :: f110 = 4.8207d-7
$ double precision, parameter :: f111 = 2.1700d-3
$ double precision, parameter :: f112 = 3.8484d-5
$ double precision, parameter :: f113 = 2.4464d-5
$ double precision, parameter :: f114 = 1.7105d-1
$ double precision, parameter :: f115 = 1.7573d+1
$ double precision, parameter :: f116 = 2.6876d-4
$ double precision, parameter :: f117 = 8.2431d-1
$ double precision, parameter :: f118 = 1.5690d-4
$ double precision, parameter :: f119 = 1.1063d0
$ double precision, parameter :: f120 = 2.4518d-1
$ double precision, parameter :: f121 = 2.4685d-3
$ double precision, parameter :: f122 = 6.5950d+1
$ double precision, parameter :: f123 = 1.8219d-5
$ double precision, parameter :: f124 = 2.3229d-8
$ double precision, parameter :: f125 = 1.8848d+2
$ double precision, parameter :: f126 = 2.2358d-5
$ double precision, parameter :: f127 = 2.3117d-7
$ double precision, parameter :: f128 = 2.2050d-5
$ double precision, parameter :: f129 = 1.4917d0
$ double precision, parameter :: f130 = 2.0926d-7
$ double precision, parameter :: f131 = 3.3793d0
$ double precision, parameter :: f132 = 2.3141d-2
$ double precision, parameter :: f133 = 3.2198d-7
$ double precision, parameter :: f134 = 1.7612d-2
$ double precision, parameter :: f135 = 1.1416d+2
$ double precision, parameter :: f136 = 2.7454d-7
$ double precision, parameter :: f137 = 2.1523d+1
$ double precision, parameter :: f138 = 1.8048d-6
$ double precision, parameter :: f139 = 1.1836d-5
$ double precision, parameter :: f140 = 5.9271d+2
$ double precision, parameter :: f141 = 9.6050d-2
$ double precision, parameter :: f142 = 6.4380d-7
$ double precision, parameter :: f143 = 1.2270d-4
$ double precision, parameter :: f144 = 1.4543d-3
$ double precision, parameter :: f145 = 1.9383d-7
$ double precision, parameter :: f146 = 6.5627d-2
$ double precision, parameter :: f147 = 5.0127d+2
$ double precision, parameter :: f148 = 1.7446d+1
$ double precision, parameter :: f149 = 4.5039d-1
$ double precision, parameter :: f150 = 1.4660d-8
$ double precision, parameter :: f151 = 3.8152d-4
$ double precision, parameter :: f152 = 8.1489d-6
$ double precision, parameter :: f153 = 2.0837d-6
$ double precision, parameter :: f154 = 4.0301d-6
$ double precision, parameter :: f155 = 6.1093d+1
$ double precision, parameter :: f156 = 2.5406d0
$ double precision, parameter :: f157 = 9.8016d-3
$ double precision, parameter :: f158 = 3.3615d+1
$ double precision, parameter :: f159 = 1.2913d-2
$ double precision, parameter :: f160 = 5.9140d0
$ double precision, parameter :: f161 = 4.9846d+2
$ double precision, parameter :: f162 = 2.5994d-5
$ double precision, parameter :: f163 = 2.2034d-3
$ double precision, parameter :: f164 = 6.7215d+2
$ double precision, parameter :: f165 = 4.6348d-3
$ double precision, parameter :: f166 = 9.7577d-7
$ double precision, parameter :: f167 = 3.0105d-2
$ double precision, parameter :: f168 = 5.4960d-4
$ double precision, parameter :: f169 = 6.9304d-6
$ double precision, parameter :: f170 = 3.6677d-4
$ double precision, parameter :: f171 = 9.6375d-5
$ double precision, parameter :: f172 = 2.2362d-3
$ double precision, parameter :: f173 = 2.2222d-4
$ double precision, parameter :: f174 = 6.2488d-7
$ double precision, parameter :: f175 = 2.4224d-6
$ double precision, parameter :: f176 = 3.3002d-3
$ double precision, parameter :: f177 = 3.1665d+2
$ double precision, parameter :: f178 = 2.1768d+1
$ double precision, parameter :: f179 = 3.2924d-6
$ double precision, parameter :: f180 = 1.9651d-2
$ double precision, parameter :: f181 = 4.3671d+2
$ double precision, parameter :: f182 = 3.8573d-6
$ double precision, parameter :: f183 = 1.4864d-5
$ double precision, parameter :: f184 = 1.8283d-5
$ double precision, parameter :: f185 = 2.7900d-6
$ double precision, parameter :: f186 = 6.9109d-7
$ double precision, parameter :: f187 = 1.5102d-2
$ double precision, parameter :: f188 = 2.8318d-2
$ double precision, parameter :: f189 = 2.5272d-2
$ double precision, parameter :: f190 = 2.4023d+1
$ double precision, parameter :: f191 = 5.1670d-3
$ double precision, parameter :: f192 = 2.4935d-4
$ double precision, parameter :: f193 = 4.2774d+1
$ double precision, parameter :: f194 = 1.0819d-2
$ double precision, parameter :: f195 = 8.5229d-6
$ double precision, parameter :: f196 = 1.0132d-4
$ double precision, parameter :: f197 = 9.5658d-8
$ double precision, parameter :: f198 = 2.4405d-4
$ double precision, parameter :: f199 = 2.2052d-6
$ double precision, parameter :: f200 = 2.9761d-1
$ double precision, parameter :: f201 = 3.1706d-2
$ double precision, parameter :: f202 = 1.8216d0
$ double precision, parameter :: f203 = 9.0339d-4
$ double precision, parameter :: f204 = 2.1313d-2
$ double precision, parameter :: f205 = 1.4751d-7
$ double precision, parameter :: f206 = 1.0576d-2
$ double precision, parameter :: f207 = 4.8279d-4
$ double precision, parameter :: f208 = 1.6051d-5
$ double precision, parameter :: f209 = 1.6954d-8
$ double precision, parameter :: f210 = 3.0235d-5
$ double precision, parameter :: f211 = 8.5990d+1
$ double precision, parameter :: f212 = 1.9481d-5
$ double precision, parameter :: f213 = 9.4602d-5
$ double precision, parameter :: f214 = 3.0399d-2
$ double precision, parameter :: f215 = 1.5904d-1
$ double precision, parameter :: f216 = 1.6009d0
$ double precision, parameter :: f217 = 2.5986d-1
$ double precision, parameter :: f218 = 1.6426d-3
$ double precision, parameter :: f219 = 1.6199d-3
$ double precision, parameter :: f220 = 2.6572d-6
$ double precision, parameter :: f221 = 7.8330d-6
$ double precision, parameter :: f222 = 1.8647d-4
$ double precision, parameter :: f223 = 3.3802d-3
$ double precision, parameter :: f224 = 3.3744d-7
$ double precision, parameter :: f225 = 1.9445d-1
$ double precision, parameter :: f226 = 4.7385d-6
$ double precision, parameter :: f227 = 1.8801d+1
$ double precision, parameter :: f228 = 3.6724d-2
$ double precision, parameter :: f229 = 1.3942d0
$ double precision, parameter :: f230 = 1.5815d-1
$ double precision, parameter :: f231 = 9.4996d+2
$ double precision, parameter :: f232 = 1.9646d-3
$ double precision, parameter :: f233 = 2.2477d-8
$ double precision, parameter :: f234 = 5.5415d0
$ double precision, parameter :: f235 = 3.6353d+1
$ double precision, parameter :: f236 = 2.9035d-5
$ double precision, parameter :: f237 = 2.2540d0
$ double precision, parameter :: f238 = 1.7430d-8
$ double precision, parameter :: f239 = 1.4169d-2
$ double precision, parameter :: f240 = 2.2654d-4
$ double precision, parameter :: f241 = 1.0678d-3
$ double precision, parameter :: f242 = 5.8796d-2
$ double precision, parameter :: f243 = 9.5550d0
$ double precision, parameter :: f244 = 2.4097d0
$ double precision, parameter :: f245 = 3.8010d-3
$ double precision, parameter :: f246 = 1.5761d0
$ double precision, parameter :: f247 = 4.5880d-4
$ double precision, parameter :: f248 = 8.9792d-6
$ double precision, parameter :: f249 = 5.6897d+2
$ double precision, parameter :: f250 = 1.4558d-5
$ double precision, parameter :: f251 = 1.8557d+2
$ double precision, parameter :: f252 = 4.7158d+2
$ double precision, parameter :: f253 = 2.1626d-5
$ double precision, parameter :: f254 = 3.1828d-6
$ double precision, parameter :: f255 = 4.6304d-2
$ double precision, parameter :: f256 = 8.3011d0
$ double precision, parameter :: f257 = 8.9072d-8
$ double precision, parameter :: f258 = 2.6207d0
$ double precision, parameter :: f259 = 3.4427d-2
$ double precision, parameter :: f260 = 1.1126d-8
$ double precision, parameter :: f261 = 2.6841d-8
$ double precision, parameter :: f262 = 1.9982d-6
$ double precision, parameter :: f263 = 5.5983d0
$ double precision, parameter :: f264 = 6.2742d-3
$ double precision, parameter :: f265 = 1.4421d-7
$ double precision, parameter :: f266 = 3.9916d-2
$ double precision, parameter :: f267 = 1.6726d-6
$ double precision, parameter :: f268 = 1.9696d-1
$ double precision, parameter :: f269 = 2.0069d+2
$ double precision, parameter :: f270 = 2.6933d-2
$ double precision, parameter :: f271 = 5.3159d-3
$ double precision, parameter :: f272 = 4.2030d-3
$ double precision, parameter :: f273 = 2.3093d-2
$ double precision, parameter :: f274 = 3.8875d-5
$ double precision, parameter :: f275 = 2.8195d+1
$ double precision, parameter :: f276 = 1.7441d-6
$ double precision, parameter :: f277 = 8.1960d+1
$ double precision, parameter :: f278 = 1.3359d-8
$ double precision, parameter :: f279 = 9.9245d-6
$ double precision, parameter :: f280 = 1.8859d-2
$ double precision, parameter :: f281 = 3.3579d-8
$ double precision, parameter :: f282 = 2.0186d-1
$ double precision, parameter :: f283 = 4.6860d-5
$ double precision, parameter :: f284 = 9.2043d-4
$ double precision, parameter :: f285 = 1.0472d-2
$ double precision, parameter :: f286 = 4.5356d0
$ double precision, parameter :: f287 = 6.3803d+2
$ double precision, parameter :: f288 = 5.2772d-4
$ double precision, parameter :: f289 = 1.5131d-8
$ double precision, parameter :: f290 = 4.0401d+1
$ double precision, parameter :: f291 = 2.3075d-6
$ double precision, parameter :: f292 = 7.1588d+2
$ double precision, parameter :: f293 = 2.1889d+1
$ double precision, parameter :: f294 = 4.6688d-7
$ double precision, parameter :: f295 = 1.3629d-8
$ double precision, parameter :: f296 = 1.2067d-1
$ double precision, parameter :: f297 = 1.1187d-6
$ double precision, parameter :: f298 = 3.5746d-6
$ double precision, parameter :: f299 = 1.4020d+2
$ double precision, parameter :: f300 = 5.6576d+2
$ double precision, parameter :: f301 = 1.1991d-2
$ double precision, parameter :: f302 = 1.7478d-5
$ double precision, parameter :: f303 = 4.2935d0
$ double precision, parameter :: f304 = 1.0144d+1
$ double precision, parameter :: f305 = 6.6153d-1
$ double precision, parameter :: f306 = 9.4614d-3
$ double precision, parameter :: f307 = 9.6094d-7
$ double precision, parameter :: f308 = 3.2378d-7
$ double precision, parameter :: f309 = 1.3573d-6
$ double precision, parameter :: f310 = 1.0630d-3
$ double precision, parameter :: f311 = 3.4759d-4
$ double precision, parameter :: f312 = 9.4371d-2
$ double precision, parameter :: f313 = 1.1955d-2
$ double precision, parameter :: f314 = 6.6753d+1
$ double precision, parameter :: f315 = 2.2720d-7

# Electron Collision Reaction
e + CH4 => e + CH4(v24)		! f0 * Bolsig+ CH4 -> CH4(v24)
e + CH4 => e + CH4(v13)		! f1 * Bolsig+ CH4 -> CH4(v13)
e + C2H6 => e + C2H6(v24)		! f2 * Bolsig+ C2H6 -> C2H6(v24)
e + C2H6 => e + C2H6(v13)		! f3 * Bolsig+ C2H6 -> C2H6(v13)
e + C2H4 => e + C2H4(v1)		! f4 * Bolsig+ C2H4 -> C2H4(v1)
e + C2H4 => e + C2H4(v2)		! f5 * Bolsig+ C2H4 -> C2H4(v2)
e + C2H2 => e + C2H2(v5)		! f6 * Bolsig+ C2H2 -> C2H2(v5)
e + C2H2 => e + C2H2(v2)		! f7 * Bolsig+ C2H2 -> C2H2(v2)
e + C2H2 => e + C2H2(v13)		! f8 * Bolsig+ C2H2 -> C2H2(v13)
e + C3H8 => e + C3H8(v1)		! f9 * Bolsig+ C3H8 -> C3H8(v1)
e + C3H8 => e + C3H8(v2)		! f10 * Bolsig+ C3H8 -> C3H8(v2)
e + C3H6 => e + C3H6(v)		! f11 * Bolsig+ C3H6 -> C3H6(v)
e + CH4 => e + CH3 + H		! f12 * Bolsig+ CH4 -> CH3 H
e + CH4(v24) => e + CH3 + H		! f12 * Bolsig+ CH4(v24) -> CH3 H
e + CH4(v13) => e + CH3 + H		! f12 * Bolsig+ CH4(v13) -> CH3 H
e + CH4 => e + CH2 + H2		! f13 * Bolsig+ CH4 -> CH2 H2
e + CH4(v24) => e + CH2 + H2		! f13 * Bolsig+ CH4(v24) -> CH2 H2
e + CH4(v13) => e + CH2 + H2		! f13 * Bolsig+ CH4(v13) -> CH2 H2
e + CH4 => e + CH + H2 + H		! f14 * Bolsig+ CH4 -> CH H2 H
e + CH4(v24) => e + CH + H2 + H		! f14 * Bolsig+ CH4(v24) -> CH H2 H
e + CH4(v13) => e + CH + H2 + H		! f14 * Bolsig+ CH4(v13) -> CH H2 H
e + CH4 => e + C + H2 + H2		! f15 * Bolsig+ CH4 -> C H2 H2
e + CH4(v24) => e + C + H2 + H2		! f15 * Bolsig+ CH4(v24) -> C H2 H2
e + CH4(v13) => e + C + H2 + H2		! f15 * Bolsig+ CH4(v13) -> C H2 H2
e + CH3 => e + CH2 + H		! f16 * Bolsig+ CH3 -> CH2 H
e + CH3 => e + CH + H2		! f17 * Bolsig+ CH3 -> CH H2
e + CH3 => e + C + H2 + H		! f18 * Bolsig+ CH3 -> C H2 H
e + CH2 => e + CH + H		! f19 * Bolsig+ CH2 -> CH H
e + CH2 => e + C + H2		! f20 * Bolsig+ CH2 -> C H2
e + CH2 => e + C + H + H		! f21 * Bolsig+ CH2 -> C H H
e + CH => e + C + H		! f22 * Bolsig+ CH -> C H
e + CH4 => e + e + CH4^+		! f23 * Bolsig+ CH4 -> CH4^+
e + CH4(v24) => e + e + CH4^+		! f23 * Bolsig+ CH4(v24) -> CH4^+
e + CH4(v13) => e + e + CH4^+		! f23 * Bolsig+ CH4(v13) -> CH4^+
e + CH4 => e + e + H + CH3^+		! f24 * Bolsig+ CH4 -> H CH3^+
e + CH4(v24) => e + e + H + CH3^+		! f24 * Bolsig+ CH4(v24) -> H CH3^+
e + CH4(v13) => e + e + H + CH3^+		! f24 * Bolsig+ CH4(v13) -> H CH3^+
e + CH4 => e + e + H2 + CH2^+		! f25 * Bolsig+ CH4 -> H2 CH2^+
e + CH4(v24) => e + e + H2 + CH2^+		! f25 * Bolsig+ CH4(v24) -> H2 CH2^+
e + CH4(v13) => e + e + H2 + CH2^+		! f25 * Bolsig+ CH4(v13) -> H2 CH2^+
e + CH4 => e + e + H2 + H + CH^+		! f26 * Bolsig+ CH4 -> H2 H CH^+
e + CH4(v24) => e + e + H2 + H + CH^+		! f26 * Bolsig+ CH4(v24) -> H2 H CH^+
e + CH4(v13) => e + e + H2 + H + CH^+		! f26 * Bolsig+ CH4(v13) -> H2 H CH^+
e + CH3 => e + e + CH3^+		! f27 * Bolsig+ CH3 -> CH3^+
e + CH3 => e + e + H + CH2^+		! f28 * Bolsig+ CH3 -> H CH2^+
e + CH3 => e + e + H2 + CH^+		! f29 * Bolsig+ CH3 -> H2 CH^+
e + CH2 => e + e + CH2^+		! f30 * Bolsig+ CH2 -> CH2^+
e + CH2 => e + e + H + CH^+		! f31 * Bolsig+ CH2 -> H CH^+
e + CH => e + e + CH^+		! f32 * Bolsig+ CH -> CH^+
e + C2H6 => e + C2H5 + H		! f33 * Bolsig+ C2H6 -> C2H5 H
e + C2H6(v24) => e + C2H5 + H		! f33 * Bolsig+ C2H6(v24) -> C2H5 H
e + C2H6(v13) => e + C2H5 + H		! f33 * Bolsig+ C2H6(v13) -> C2H5 H
e + C2H6 => e + C2H4 + H2		! f34 * Bolsig+ C2H6 -> C2H4 H2
e + C2H6(v24) => e + C2H4 + H2		! f34 * Bolsig+ C2H6(v24) -> C2H4 H2
e + C2H6(v13) => e + C2H4 + H2		! f34 * Bolsig+ C2H6(v13) -> C2H4 H2
e + C2H6 => e + C2H3 + H2 + H		! f35 * Bolsig+ C2H6 -> C2H3 H2 H
e + C2H6(v24) => e + C2H3 + H2 + H		! f35 * Bolsig+ C2H6(v24) -> C2H3 H2 H
e + C2H6(v13) => e + C2H3 + H2 + H		! f35 * Bolsig+ C2H6(v13) -> C2H3 H2 H
e + C2H6 => e + C2H2 + H2 + H2		! f36 * Bolsig+ C2H6 -> C2H2 H2 H2
e + C2H6(v24) => e + C2H2 + H2 + H2		! f36 * Bolsig+ C2H6(v24) -> C2H2 H2 H2
e + C2H6(v13) => e + C2H2 + H2 + H2		! f36 * Bolsig+ C2H6(v13) -> C2H2 H2 H2
e + C2H6 => e + CH4 + CH2		! f37 * Bolsig+ C2H6 -> CH4 CH2
e + C2H6(v24) => e + CH4 + CH2		! f37 * Bolsig+ C2H6(v24) -> CH4 CH2
e + C2H6(v13) => e + CH4 + CH2		! f37 * Bolsig+ C2H6(v13) -> CH4 CH2
e + C2H6 => e + CH3 + CH3		! f38 * Bolsig+ C2H6 -> CH3 CH3
e + C2H6(v24) => e + CH3 + CH3		! f38 * Bolsig+ C2H6(v24) -> CH3 CH3
e + C2H6(v13) => e + CH3 + CH3		! f38 * Bolsig+ C2H6(v13) -> CH3 CH3
e + C2H5 => e + C2H4 + H		! f39 * Bolsig+ C2H5 -> C2H4 H
e + C2H5 => e + C2H3 + H2		! f40 * Bolsig+ C2H5 -> C2H3 H2
e + C2H5 => e + C2H3 + H + H		! f41 * Bolsig+ C2H5 -> C2H3 H H
e + C2H5 => e + C2H2 + H2 + H		! f42 * Bolsig+ C2H5 -> C2H2 H2 H
e + C2H5 => e + CH4 + CH		! f43 * Bolsig+ C2H5 -> CH4 CH
e + C2H5 => e + CH3 + CH2		! f44 * Bolsig+ C2H5 -> CH3 CH2
e + C2H4 => e + C2H3 + H		! f45 * Bolsig+ C2H4 -> C2H3 H
e + C2H4(v1) => e + C2H3 + H		! f45 * Bolsig+ C2H4(v1) -> C2H3 H
e + C2H4(v2) => e + C2H3 + H		! f45 * Bolsig+ C2H4(v2) -> C2H3 H
e + C2H4 => e + C2H2 + H2		! f46 * Bolsig+ C2H4 -> C2H2 H2
e + C2H4(v1) => e + C2H2 + H2		! f46 * Bolsig+ C2H4(v1) -> C2H2 H2
e + C2H4(v2) => e + C2H2 + H2		! f46 * Bolsig+ C2H4(v2) -> C2H2 H2
e + C2H4 => e + C2H2 + H + H		! f47 * Bolsig+ C2H4 -> C2H2 H H
e + C2H4(v1) => e + C2H2 + H + H		! f47 * Bolsig+ C2H4(v1) -> C2H2 H H
e + C2H4(v2) => e + C2H2 + H + H		! f47 * Bolsig+ C2H4(v2) -> C2H2 H H
e + C2H4 => e + CH3 + CH		! f48 * Bolsig+ C2H4 -> CH3 CH
e + C2H4(v1) => e + CH3 + CH		! f48 * Bolsig+ C2H4(v1) -> CH3 CH
e + C2H4(v2) => e + CH3 + CH		! f48 * Bolsig+ C2H4(v2) -> CH3 CH
e + C2H4 => e + CH2 + CH2		! f49 * Bolsig+ C2H4 -> CH2 CH2
e + C2H4(v1) => e + CH2 + CH2		! f49 * Bolsig+ C2H4(v1) -> CH2 CH2
e + C2H4(v2) => e + CH2 + CH2		! f49 * Bolsig+ C2H4(v2) -> CH2 CH2
e + C2H3 => e + C2H2 + H		! f50 * Bolsig+ C2H3 -> C2H2 H
e + C2H3 => e + CH2 + CH		! f51 * Bolsig+ C2H3 -> CH2 CH
e + C2H2 => e + CH + CH		! f52 * Bolsig+ C2H2 -> CH CH
e + C2H2(v5) => e + CH + CH		! f52 * Bolsig+ C2H2(v5) -> CH CH
e + C2H2(v2) => e + CH + CH		! f52 * Bolsig+ C2H2(v2) -> CH CH
e + C2H2(v13) => e + CH + CH		! f52 * Bolsig+ C2H2(v13) -> CH CH
e + C2H6 => e + e + C2H6^+		! f53 * Bolsig+ C2H6 -> C2H6^+
e + C2H6(v24) => e + e + C2H6^+		! f53 * Bolsig+ C2H6(v24) -> C2H6^+
e + C2H6(v13) => e + e + C2H6^+		! f53 * Bolsig+ C2H6(v13) -> C2H6^+
e + C2H6 => e + e + H + C2H5^+		! f54 * Bolsig+ C2H6 -> H C2H5^+
e + C2H6(v24) => e + e + H + C2H5^+		! f54 * Bolsig+ C2H6(v24) -> H C2H5^+
e + C2H6(v13) => e + e + H + C2H5^+		! f54 * Bolsig+ C2H6(v13) -> H C2H5^+
e + C2H6 => e + e + H2 + C2H4^+		! f55 * Bolsig+ C2H6 -> H2 C2H4^+
e + C2H6(v24) => e + e + H2 + C2H4^+		! f55 * Bolsig+ C2H6(v24) -> H2 C2H4^+
e + C2H6(v13) => e + e + H2 + C2H4^+		! f55 * Bolsig+ C2H6(v13) -> H2 C2H4^+
e + C2H6 => e + e + H2 + H + C2H3^+		! f56 * Bolsig+ C2H6 -> H2 H C2H3^+
e + C2H6(v24) => e + e + H2 + H + C2H3^+		! f56 * Bolsig+ C2H6(v24) -> H2 H C2H3^+
e + C2H6(v13) => e + e + H2 + H + C2H3^+		! f56 * Bolsig+ C2H6(v13) -> H2 H C2H3^+
e + C2H6 => e + e + H2 + H2 + C2H2^+		! f57 * Bolsig+ C2H6 -> H2 H2 C2H2^+
e + C2H6(v24) => e + e + H2 + H2 + C2H2^+		! f57 * Bolsig+ C2H6(v24) -> H2 H2 C2H2^+
e + C2H6(v13) => e + e + H2 + H2 + C2H2^+		! f57 * Bolsig+ C2H6(v13) -> H2 H2 C2H2^+
e + C2H6 => e + e + CH3 + CH3^+		! f58 * Bolsig+ C2H6 -> CH3 CH3^+
e + C2H6(v24) => e + e + CH3 + CH3^+		! f58 * Bolsig+ C2H6(v24) -> CH3 CH3^+
e + C2H6(v13) => e + e + CH3 + CH3^+		! f58 * Bolsig+ C2H6(v13) -> CH3 CH3^+
e + C2H6 => e + e + CH4 + CH2^+		! f59 * Bolsig+ C2H6 -> CH4 CH2^+
e + C2H6(v24) => e + e + CH4 + CH2^+		! f59 * Bolsig+ C2H6(v24) -> CH4 CH2^+
e + C2H6(v13) => e + e + CH4 + CH2^+		! f59 * Bolsig+ C2H6(v13) -> CH4 CH2^+
e + C2H5 => e + e + C2H5^+		! f60 * Bolsig+ C2H5 -> C2H5^+
e + C2H5 => e + e + H + C2H4^+		! f61 * Bolsig+ C2H5 -> H C2H4^+
e + C2H5 => e + e + H2 + C2H3^+		! f62 * Bolsig+ C2H5 -> H2 C2H3^+
e + C2H5 => e + e + H2 + H + C2H2^+		! f63 * Bolsig+ C2H5 -> H2 H C2H2^+
e + C2H5 => e + e + CH2 + CH3^+		! f64 * Bolsig+ C2H5 -> CH2 CH3^+
e + C2H5 => e + e + CH3 + CH2^+		! f65 * Bolsig+ C2H5 -> CH3 CH2^+
e + C2H5 => e + e + CH4 + CH^+		! f66 * Bolsig+ C2H5 -> CH4 CH^+
e + C2H4 => e + e + C2H4^+		! f67 * Bolsig+ C2H4 -> C2H4^+
e + C2H4(v1) => e + e + C2H4^+		! f67 * Bolsig+ C2H4(v1) -> C2H4^+
e + C2H4(v2) => e + e + C2H4^+		! f67 * Bolsig+ C2H4(v2) -> C2H4^+
e + C2H4 => e + e + H + C2H3^+		! f68 * Bolsig+ C2H4 -> H C2H3^+
e + C2H4(v1) => e + e + H + C2H3^+		! f68 * Bolsig+ C2H4(v1) -> H C2H3^+
e + C2H4(v2) => e + e + H + C2H3^+		! f68 * Bolsig+ C2H4(v2) -> H C2H3^+
e + C2H4 => e + e + CH + CH3^+		! f69 * Bolsig+ C2H4 -> CH CH3^+
e + C2H4(v1) => e + e + CH + CH3^+		! f69 * Bolsig+ C2H4(v1) -> CH CH3^+
e + C2H4(v2) => e + e + CH + CH3^+		! f69 * Bolsig+ C2H4(v2) -> CH CH3^+
e + C2H4 => e + e + CH2 + CH2^+		! f70 * Bolsig+ C2H4 -> CH2 CH2^+
e + C2H4(v1) => e + e + CH2 + CH2^+		! f70 * Bolsig+ C2H4(v1) -> CH2 CH2^+
e + C2H4(v2) => e + e + CH2 + CH2^+		! f70 * Bolsig+ C2H4(v2) -> CH2 CH2^+
e + C2H4 => e + e + CH3 + CH^+		! f71 * Bolsig+ C2H4 -> CH3 CH^+
e + C2H4(v1) => e + e + CH3 + CH^+		! f71 * Bolsig+ C2H4(v1) -> CH3 CH^+
e + C2H4(v2) => e + e + CH3 + CH^+		! f71 * Bolsig+ C2H4(v2) -> CH3 CH^+
e + C2H3 => e + e + C2H3^+		! f72 * Bolsig+ C2H3 -> C2H3^+
e + C2H3 => e + e + H + C2H2^+		! f73 * Bolsig+ C2H3 -> H C2H2^+
e + C2H3 => e + e + CH + CH2^+		! f74 * Bolsig+ C2H3 -> CH CH2^+
e + C2H3 => e + e + CH2 + CH^+		! f75 * Bolsig+ C2H3 -> CH2 CH^+
e + C2H3 => e + e + C2H2 + H^+		! f76 * Bolsig+ C2H3 -> C2H2 H^+
e + C2H2 => e + e + C2H2^+		! f77 * Bolsig+ C2H2 -> C2H2^+
e + C2H2(v5) => e + e + C2H2^+		! f77 * Bolsig+ C2H2(v5) -> C2H2^+
e + C2H2(v2) => e + e + C2H2^+		! f77 * Bolsig+ C2H2(v2) -> C2H2^+
e + C2H2(v13) => e + e + C2H2^+		! f77 * Bolsig+ C2H2(v13) -> C2H2^+
e + C2H2 => e + e + CH + CH^+		! f78 * Bolsig+ C2H2 -> CH CH^+
e + C2H2(v5) => e + e + CH + CH^+		! f78 * Bolsig+ C2H2(v5) -> CH CH^+
e + C2H2(v2) => e + e + CH + CH^+		! f78 * Bolsig+ C2H2(v2) -> CH CH^+
e + C2H2(v13) => e + e + CH + CH^+		! f78 * Bolsig+ C2H2(v13) -> CH CH^+
e + C3H8 => e + C3H7 + H		! f79 * Bolsig+ C3H8 -> C3H7 H
e + C3H8(v1) => e + C3H7 + H		! f79 * Bolsig+ C3H8(v1) -> C3H7 H
e + C3H8(v2) => e + C3H7 + H		! f79 * Bolsig+ C3H8(v2) -> C3H7 H
e + C3H8 => e + C3H6 + H2		! f80 * Bolsig+ C3H8 -> C3H6 H2
e + C3H8(v1) => e + C3H6 + H2		! f80 * Bolsig+ C3H8(v1) -> C3H6 H2
e + C3H8(v2) => e + C3H6 + H2		! f80 * Bolsig+ C3H8(v2) -> C3H6 H2
e + C3H7 => e + C3H6 + H		! f81 * Bolsig+ C3H7 -> C3H6 H
e + C3H8 => e + e + C3H8^+		! f82 * Bolsig+ C3H8 -> C3H8^+
e + C3H8(v1) => e + e + C3H8^+		! f82 * Bolsig+ C3H8(v1) -> C3H8^+
e + C3H8(v2) => e + e + C3H8^+		! f82 * Bolsig+ C3H8(v2) -> C3H8^+
e + C3H8 => e + e + H + C3H7^+		! f83 * Bolsig+ C3H8 -> H C3H7^+
e + C3H8(v1) => e + e + H + C3H7^+		! f83 * Bolsig+ C3H8(v1) -> H C3H7^+
e + C3H8(v2) => e + e + H + C3H7^+		! f83 * Bolsig+ C3H8(v2) -> H C3H7^+
e + C3H8 => e + e + H2 + C3H6^+		! f84 * Bolsig+ C3H8 -> H2 C3H6^+
e + C3H8(v1) => e + e + H2 + C3H6^+		! f84 * Bolsig+ C3H8(v1) -> H2 C3H6^+
e + C3H8(v2) => e + e + H2 + C3H6^+		! f84 * Bolsig+ C3H8(v2) -> H2 C3H6^+
e + C3H7 => e + e + C3H7^+		! f85 * Bolsig+ C3H7 -> C3H7^+
e + C3H7 => e + e + H + C3H6^+		! f86 * Bolsig+ C3H7 -> H C3H6^+
e + C3H6 => e + e + C3H6^+		! f87 * Bolsig+ C3H6 -> C3H6^+
e + C3H6(v) => e + e + C3H6^+		! f87 * Bolsig+ C3H6(v) -> C3H6^+
e + C3H6 => e + C2H2 + CH4		! f88 * Bolsig+ C3H6 -> C2H2 CH4
e + C3H6(v) => e + C2H2 + CH4		! f88 * Bolsig+ C3H6(v) -> C2H2 CH4
e + C3H6 => e + e + C2H2 + CH4^+		! f89 * Bolsig+ C3H6 -> C2H2 CH4^+
e + C3H6(v) => e + e + C2H2 + CH4^+		! f89 * Bolsig+ C3H6(v) -> C2H2 CH4^+

# Ion Recombination Reaction
e + e + CH^+ => e + CH		! f90 * 1.00d0
e + e + CH2^+ => e + CH2		! f91 * 1.00d0
e + e + CH3^+ => e + CH3		! f92 * 1.00d0
e + e + CH4^+ => e + CH4		! f93 * 1.00d0
e + e + C2H2^+ => e + C2H2		! f94 * 1.00d0
e + e + C2H3^+ => e + C2H3		! f95 * 1.00d0
e + e + C2H4^+ => e + C2H4		! f96 * 1.00d0
e + e + C2H5^+ => e + C2H5		! f97 * 1.00d0
e + e + C2H6^+ => e + C2H6		! f98 * 1.00d0
e + e + C3H6^+ => e + C3H6		! f99 * 1.00d0
e + e + C3H7^+ => e + C3H7		! f100 * 1.00d0
e + e + C3H8^+ => e + C3H8		! f101 * 1.00d0

# Gas Phase Reaction
e + CH4^+ => CH3 + H		! f102 * 1.18d-08 * (300./Tgas)**0.5
e + CH4^+ => CH2 + H + H		! f103 * 2.42d-08 * (300./Tgas)**0.5
e + CH4^+ => CH + H2 + H		! f104 * 1.41d-08 * (300./Tgas)**0.5
e + CH3^+ => CH2 + H		! f105 * 2.25d-08 * (300./Tgas)**0.5
e + CH3^+ => CH + H2		! f106 * 7.88d-09 * (300./Tgas)**0.5
e + CH3^+ => CH + H + H		! f107 * 9.00d-09 * (300./Tgas)**0.5
e + CH3^+ => C + H2 + H		! f108 * 1.69d-08 * (300./Tgas)**0.5
e + CH2^+ => CH + H		! f109 * 1.00d-08 * (300./Tgas)**0.5
e + CH2^+ => C + H2		! f110 * 4.82d-09 * (300./Tgas)**0.5
e + CH2^+ => C + H + H		! f111 * 2.53d-08 * (300./Tgas)**0.5
e + CH^+ => C + H		! f112 * 3.23d-08 * (300./Tgas)**0.42
e + C2H6^+ => C2H5 + H		! f113 * 2.19d-08 * (300./Tgas)**0.71
e + C2H6^+ => C2H4 + H + H		! f114 * 3.36d-08 * (300./Tgas)**0.71
e + C2H5^+ => C2H4 + H		! f115 * 7.70d-09 * (300./Tgas)**0.71
e + C2H5^+ => C2H3 + H + H		! f116 * 1.92d-08 * (300./Tgas)**0.71
e + C2H5^+ => C2H2 + H2 + H		! f117 * 1.60d-08 * (300./Tgas)**0.71
e + C2H5^+ => C2H2 + H + H + H		! f118 * 8.98d-09 * (300./Tgas)**0.71
e + C2H5^+ => CH3 + CH2		! f119 * 9.62d-09 * (300./Tgas)**0.71
e + C2H4^+ => C2H3 + H		! f120 * 8.29d-09 * (300./Tgas)**0.71
e + C2H4^+ => C2H2 + H + H		! f121 * 3.43d-08 * (300./Tgas)**0.71
e + C2H3^+ => C2H2 + H		! f122 * 1.34d-08 * (300./Tgas)**0.71
e + C2H2^+ => CH + CH		! f123 * 4.87d-09 * (300./Tgas)**0.71
e + H2^+ => H + H		! f124 * 3.17d21/(6.022d23 * Te**4.5)
e + H3^+ => H + H2		! f125 * 3.17d21/(6.022d23 * Te**4.5)
H2 + H2^+ => H + H3^+		! f126 * 2.11d-09
C2H6 + CH4^+ => CH4 + H2 + C2H4^+		! f127 * 1.91d-9
C2H6(v24) + CH4^+ => CH4 + H2 + C2H4^+		! f127 * 1.91d-9
C2H6(v13) + CH4^+ => CH4 + H2 + C2H4^+		! f127 * 1.91d-9
C2H4 + CH4^+ => CH3 + C2H5^+		! f128 * 4.23d-10