ELEMENTS
e C H
END

SPECIES
e C CH CH^+ CH2 CH2^+ CH3 CH3^+ CH4 CH4(v13) CH4(v24) CH4^+ C2H2 C2H2(v13) C2H2(v2) C2H2(v5) C2H2^+ C2H3 C2H3^+ C2H4 C2H4(v1) C2H4(v2) C2H4^+ C2H5 C2H5^+
C2H6 C2H6(v13) C2H6(v24) C2H6^+ C3H5 C3H6 C3H6(v) C3H6^+ C3H7 C3H7^+ C3H8 C3H8(v1) C3H8(v2) C3H8^+ C4H9 C4H9H C2H C5H12 H H2 H2^+ H3^+ H^+
END

BOLSIG
CH CH2 CH3 CH4 CH4(v13) CH4(v24) C2H2 C2H2(v13) C2H2(v2) C2H2(v5) C2H3 C2H4 C2H4(v1) C2H4(v2) C2H5 C2H6 C2H6(v13) C2H6(v24) C3H6 C3H6(v) C3H7 C3H8 C3H8(v1) C3H8(v2)
END

REACTIONS
# Gas Constant
$ double precision, parameter :: R = 8.314d-3

# Compensation Parameters
$ double precision, parameter :: f0 = 7.0165d-6
$ double precision, parameter :: f1 = 2.9668d+2
$ double precision, parameter :: f2 = 5.7082d-4
$ double precision, parameter :: f3 = 3.2435d+1
$ double precision, parameter :: f4 = 3.8025d-2
$ double precision, parameter :: f5 = 4.0926d-5
$ double precision, parameter :: f6 = 4.1663d-7
$ double precision, parameter :: f7 = 1.2146d-1
$ double precision, parameter :: f8 = 2.1530d-7
$ double precision, parameter :: f9 = 1.1709d0
$ double precision, parameter :: f10 = 8.9216d+2
$ double precision, parameter :: f11 = 1.1650d-8
$ double precision, parameter :: f12 = 7.1878d-3
$ double precision, parameter :: f13 = 3.4721d-5
$ double precision, parameter :: f14 = 1.2563d-2
$ double precision, parameter :: f15 = 2.4130d-4
$ double precision, parameter :: f16 = 9.6671d+1
$ double precision, parameter :: f17 = 7.1011d-2
$ double precision, parameter :: f18 = 1.2661d-3
$ double precision, parameter :: f19 = 1.2362d-4
$ double precision, parameter :: f20 = 3.6350d-4
$ double precision, parameter :: f21 = 6.9353d-1
$ double precision, parameter :: f22 = 3.2428d-7
$ double precision, parameter :: f23 = 1.9826d-6
$ double precision, parameter :: f24 = 5.5940d-3
$ double precision, parameter :: f25 = 2.0417d-3
$ double precision, parameter :: f26 = 7.2408d-5
$ double precision, parameter :: f27 = 6.8204d-7
$ double precision, parameter :: f28 = 7.0500d+1
$ double precision, parameter :: f29 = 1.4872d-5
$ double precision, parameter :: f30 = 4.3949d-3
$ double precision, parameter :: f31 = 4.2098d-8
$ double precision, parameter :: f32 = 9.0212d-1
$ double precision, parameter :: f33 = 1.0434d+1
$ double precision, parameter :: f34 = 4.4446d0
$ double precision, parameter :: f35 = 5.7675d-3
$ double precision, parameter :: f36 = 1.3397d-3
$ double precision, parameter :: f37 = 4.9982d-1
$ double precision, parameter :: f38 = 2.5277d-1
$ double precision, parameter :: f39 = 2.7285d-6
$ double precision, parameter :: f40 = 1.8903d+1
$ double precision, parameter :: f41 = 3.1241d-4
$ double precision, parameter :: f42 = 2.6649d-7
$ double precision, parameter :: f43 = 9.5790d-6
$ double precision, parameter :: f44 = 1.2610d-5
$ double precision, parameter :: f45 = 1.1881d0
$ double precision, parameter :: f46 = 6.5200d-4
$ double precision, parameter :: f47 = 6.5370d-3
$ double precision, parameter :: f48 = 6.2098d0
$ double precision, parameter :: f49 = 2.1673d-7
$ double precision, parameter :: f50 = 3.1413d-3
$ double precision, parameter :: f51 = 5.8598d+1
$ double precision, parameter :: f52 = 3.7487d-5
$ double precision, parameter :: f53 = 5.3797d-5
$ double precision, parameter :: f54 = 2.6817d+1
$ double precision, parameter :: f55 = 2.4380d+1
$ double precision, parameter :: f56 = 7.7317d-1
$ double precision, parameter :: f57 = 1.1176d+2
$ double precision, parameter :: f58 = 5.6507d-4
$ double precision, parameter :: f59 = 1.8556d-5
$ double precision, parameter :: f60 = 1.1752d-8
$ double precision, parameter :: f61 = 2.0671d0
$ double precision, parameter :: f62 = 1.1429d-3
$ double precision, parameter :: f63 = 1.8360d-2
$ double precision, parameter :: f64 = 4.5151d-2
$ double precision, parameter :: f65 = 2.4990d0
$ double precision, parameter :: f66 = 1.2556d+2
$ double precision, parameter :: f67 = 6.9094d-7
$ double precision, parameter :: f68 = 5.2951d-8
$ double precision, parameter :: f69 = 7.5688d+1
$ double precision, parameter :: f70 = 5.8568d-8
$ double precision, parameter :: f71 = 1.0604d+2
$ double precision, parameter :: f72 = 3.7941d-4
$ double precision, parameter :: f73 = 4.7907d+1
$ double precision, parameter :: f74 = 7.9779d-5
$ double precision, parameter :: f75 = 3.4929d-1
$ double precision, parameter :: f76 = 4.9881d-8
$ double precision, parameter :: f77 = 7.2644d-8
$ double precision, parameter :: f78 = 3.5992d+2
$ double precision, parameter :: f79 = 2.4446d-4
$ double precision, parameter :: f80 = 3.0754d-7
$ double precision, parameter :: f81 = 1.1970d-4
$ double precision, parameter :: f82 = 5.2501d-6
$ double precision, parameter :: f83 = 2.3964d-4
$ double precision, parameter :: f84 = 1.8238d-8
$ double precision, parameter :: f85 = 2.8669d+1
$ double precision, parameter :: f86 = 2.7527d-7
$ double precision, parameter :: f87 = 8.0589d-2
$ double precision, parameter :: f88 = 1.3149d0
$ double precision, parameter :: f89 = 6.1120d-7
$ double precision, parameter :: f90 = 4.1762d-2
$ double precision, parameter :: f91 = 2.9350d-3
$ double precision, parameter :: f92 = 1.3652d-6
$ double precision, parameter :: f93 = 3.8051d-4
$ double precision, parameter :: f94 = 9.1935d-6
$ double precision, parameter :: f95 = 2.2760d-1
$ double precision, parameter :: f96 = 1.3484d-3
$ double precision, parameter :: f97 = 8.7778d-6
$ double precision, parameter :: f98 = 4.0594d-3
$ double precision, parameter :: f99 = 3.3939d0
$ double precision, parameter :: f100 = 3.1366d-1
$ double precision, parameter :: f101 = 5.2555d-7
$ double precision, parameter :: f102 = 5.5550d+1
$ double precision, parameter :: f103 = 1.2627d+2
$ double precision, parameter :: f104 = 7.8319d+2
$ double precision, parameter :: f105 = 1.9803d-4
$ double precision, parameter :: f106 = 1.5502d-2
$ double precision, parameter :: f107 = 1.2368d-1
$ double precision, parameter :: f108 = 4.0755d0
$ double precision, parameter :: f109 = 1.2192d+2
$ double precision, parameter :: f110 = 3.3003d-8
$ double precision, parameter :: f111 = 4.9182d-4
$ double precision, parameter :: f112 = 2.5692d+2
$ double precision, parameter :: f113 = 1.0488d-8
$ double precision, parameter :: f114 = 3.1334d-7
$ double precision, parameter :: f115 = 2.5334d+1
$ double precision, parameter :: f116 = 7.4344d-6
$ double precision, parameter :: f117 = 1.8415d-6
$ double precision, parameter :: f118 = 9.8896d-7
$ double precision, parameter :: f119 = 2.3536d-5
$ double precision, parameter :: f120 = 3.6372d-6
$ double precision, parameter :: f121 = 1.3048d0
$ double precision, parameter :: f122 = 1.9510d-2
$ double precision, parameter :: f123 = 5.4261d-8
$ double precision, parameter :: f124 = 8.6680d-6
$ double precision, parameter :: f125 = 1.9645d0
$ double precision, parameter :: f126 = 1.6824d+2
$ double precision, parameter :: f127 = 2.1715d-8
$ double precision, parameter :: f128 = 4.4084d+1
$ double precision, parameter :: f129 = 1.1101d-1
$ double precision, parameter :: f130 = 6.3516d-8
$ double precision, parameter :: f131 = 1.9950d-7
$ double precision, parameter :: f132 = 4.6642d-5
$ double precision, parameter :: f133 = 2.9556d+2
$ double precision, parameter :: f134 = 1.3785d-2
$ double precision, parameter :: f135 = 1.0671d-6
$ double precision, parameter :: f136 = 3.5998d+2
$ double precision, parameter :: f137 = 4.1725d-7
$ double precision, parameter :: f138 = 4.6702d-7
$ double precision, parameter :: f139 = 2.2856d-5
$ double precision, parameter :: f140 = 7.6096d-2
$ double precision, parameter :: f141 = 8.2117d-4
$ double precision, parameter :: f142 = 1.6754d-4
$ double precision, parameter :: f143 = 1.5852d-1
$ double precision, parameter :: f144 = 3.6825d+1
$ double precision, parameter :: f145 = 2.8627d0
$ double precision, parameter :: f146 = 7.4209d-4
$ double precision, parameter :: f147 = 5.9054d0
$ double precision, parameter :: f148 = 5.2124d-6
$ double precision, parameter :: f149 = 7.2163d-6
$ double precision, parameter :: f150 = 3.5583d+2
$ double precision, parameter :: f151 = 2.4305d-4
$ double precision, parameter :: f152 = 6.3088d0
$ double precision, parameter :: f153 = 2.9953d-6
$ double precision, parameter :: f154 = 8.9746d-2
$ double precision, parameter :: f155 = 6.0276d-1
$ double precision, parameter :: f156 = 1.2119d-5
$ double precision, parameter :: f157 = 2.3787d+2
$ double precision, parameter :: f158 = 8.6604d-2
$ double precision, parameter :: f159 = 1.7190d-3
$ double precision, parameter :: f160 = 2.1525d-8
$ double precision, parameter :: f161 = 5.7023d-5
$ double precision, parameter :: f162 = 8.9389d-4
$ double precision, parameter :: f163 = 7.2784d-1
$ double precision, parameter :: f164 = 2.7633d-8
$ double precision, parameter :: f165 = 7.6379d-1
$ double precision, parameter :: f166 = 1.1333d-5
$ double precision, parameter :: f167 = 9.7332d+2
$ double precision, parameter :: f168 = 3.9298d-5
$ double precision, parameter :: f169 = 1.1722d-8
$ double precision, parameter :: f170 = 2.6923d-1
$ double precision, parameter :: f171 = 3.2144d-8
$ double precision, parameter :: f172 = 3.6011d+2
$ double precision, parameter :: f173 = 1.2957d+2
$ double precision, parameter :: f174 = 1.8011d-7
$ double precision, parameter :: f175 = 1.0793d-3
$ double precision, parameter :: f176 = 1.7461d-4
$ double precision, parameter :: f177 = 9.0986d-6
$ double precision, parameter :: f178 = 5.0961d-7
$ double precision, parameter :: f179 = 9.3783d-5
$ double precision, parameter :: f180 = 1.2532d-6
$ double precision, parameter :: f181 = 4.0742d-2
$ double precision, parameter :: f182 = 3.8871d-1
$ double precision, parameter :: f183 = 1.0577d+1
$ double precision, parameter :: f184 = 1.4795d-4
$ double precision, parameter :: f185 = 5.8606d+1
$ double precision, parameter :: f186 = 1.2219d-8
$ double precision, parameter :: f187 = 5.1719d+1
$ double precision, parameter :: f188 = 1.1059d-6
$ double precision, parameter :: f189 = 5.9482d-7
$ double precision, parameter :: f190 = 5.9751d-6
$ double precision, parameter :: f191 = 2.7665d0
$ double precision, parameter :: f192 = 2.0624d-5
$ double precision, parameter :: f193 = 1.3393d-2
$ double precision, parameter :: f194 = 1.8115d-6
$ double precision, parameter :: f195 = 1.0691d-8
$ double precision, parameter :: f196 = 4.3503d-2
$ double precision, parameter :: f197 = 6.1285d+2
$ double precision, parameter :: f198 = 6.5627d-2
$ double precision, parameter :: f199 = 2.8379d-6
$ double precision, parameter :: f200 = 9.5252d-1
$ double precision, parameter :: f201 = 1.7795d+1
$ double precision, parameter :: f202 = 2.5497d0
$ double precision, parameter :: f203 = 2.4654d-7
$ double precision, parameter :: f204 = 5.5669d-8
$ double precision, parameter :: f205 = 1.7295d-5
$ double precision, parameter :: f206 = 3.2595d-8
$ double precision, parameter :: f207 = 1.1419d-2
$ double precision, parameter :: f208 = 5.9439d+2
$ double precision, parameter :: f209 = 3.9461d-7
$ double precision, parameter :: f210 = 1.0603d-5
$ double precision, parameter :: f211 = 2.5039d-6
$ double precision, parameter :: f212 = 2.7822d-2
$ double precision, parameter :: f213 = 2.4792d-2
$ double precision, parameter :: f214 = 3.4454d-1
$ double precision, parameter :: f215 = 1.9986d-1
$ double precision, parameter :: f216 = 2.3665d-6
$ double precision, parameter :: f217 = 3.6866d-1
$ double precision, parameter :: f218 = 1.1576d-8
$ double precision, parameter :: f219 = 4.5977d-4
$ double precision, parameter :: f220 = 6.9637d-6
$ double precision, parameter :: f221 = 4.1579d-7
$ double precision, parameter :: f222 = 3.0459d0
$ double precision, parameter :: f223 = 6.5793d0
$ double precision, parameter :: f224 = 1.6383d+2
$ double precision, parameter :: f225 = 9.0370d-1
$ double precision, parameter :: f226 = 7.0429d-7
$ double precision, parameter :: f227 = 6.8897d+2
$ double precision, parameter :: f228 = 7.5049d-5
$ double precision, parameter :: f229 = 1.4515d-4
$ double precision, parameter :: f230 = 4.7483d+2
$ double precision, parameter :: f231 = 3.1350d-2
$ double precision, parameter :: f232 = 5.5561d-7
$ double precision, parameter :: f233 = 2.2082d-4
$ double precision, parameter :: f234 = 3.4049d-4
$ double precision, parameter :: f235 = 1.2116d+1
$ double precision, parameter :: f236 = 1.4141d0
$ double precision, parameter :: f237 = 4.4634d-7
$ double precision, parameter :: f238 = 2.0749d-7
$ double precision, parameter :: f239 = 3.5877d-2
$ double precision, parameter :: f240 = 7.8150d-4
$ double precision, parameter :: f241 = 5.9817d-4
$ double precision, parameter :: f242 = 1.2936d+2
$ double precision, parameter :: f243 = 3.1040d0
$ double precision, parameter :: f244 = 3.7542d-8
$ double precision, parameter :: f245 = 9.9110d+1
$ double precision, parameter :: f246 = 7.8273d-1
$ double precision, parameter :: f247 = 8.3113d-5
$ double precision, parameter :: f248 = 2.6162d-5
$ double precision, parameter :: f249 = 3.9385d-1
$ double precision, parameter :: f250 = 2.2033d-1
$ double precision, parameter :: f251 = 2.7832d-7
$ double precision, parameter :: f252 = 1.0364d-3
$ double precision, parameter :: f253 = 6.5350d-8
$ double precision, parameter :: f254 = 1.5276d-8
$ double precision, parameter :: f255 = 1.6356d-7
$ double precision, parameter :: f256 = 1.5787d+1
$ double precision, parameter :: f257 = 1.5020d-7
$ double precision, parameter :: f258 = 7.9235d0
$ double precision, parameter :: f259 = 1.0415d-8
$ double precision, parameter :: f260 = 1.3178d+1
$ double precision, parameter :: f261 = 3.3088d-6
$ double precision, parameter :: f262 = 6.2149d-2
$ double precision, parameter :: f263 = 6.8447d-2
$ double precision, parameter :: f264 = 7.9453d-1
$ double precision, parameter :: f265 = 2.4143d0
$ double precision, parameter :: f266 = 5.0074d-5
$ double precision, parameter :: f267 = 6.0989d-3
$ double precision, parameter :: f268 = 9.4200d-4
$ double precision, parameter :: f269 = 1.2479d+1
$ double precision, parameter :: f270 = 1.0234d0
$ double precision, parameter :: f271 = 3.4495d-6
$ double precision, parameter :: f272 = 8.0852d-8
$ double precision, parameter :: f273 = 9.5680d-3
$ double precision, parameter :: f274 = 4.9347d-3
$ double precision, parameter :: f275 = 1.1485d-1
$ double precision, parameter :: f276 = 6.4746d-4
$ double precision, parameter :: f277 = 5.3206d-4
$ double precision, parameter :: f278 = 1.7149d-8
$ double precision, parameter :: f279 = 5.4137d+1
$ double precision, parameter :: f280 = 9.1252d-4
$ double precision, parameter :: f281 = 1.7811d-6
$ double precision, parameter :: f282 = 8.4980d-6
$ double precision, parameter :: f283 = 3.2272d-8
$ double precision, parameter :: f284 = 3.3379d-8
$ double precision, parameter :: f285 = 1.5689d-3
$ double precision, parameter :: f286 = 1.1116d-1
$ double precision, parameter :: f287 = 8.3464d-7
$ double precision, parameter :: f288 = 8.6836d0
$ double precision, parameter :: f289 = 1.1610d-7
$ double precision, parameter :: f290 = 8.6890d-5
$ double precision, parameter :: f291 = 3.0712d-1
$ double precision, parameter :: f292 = 6.0837d-7
$ double precision, parameter :: f293 = 3.4123d-8
$ double precision, parameter :: f294 = 5.7386d+2
$ double precision, parameter :: f295 = 2.6208d-4
$ double precision, parameter :: f296 = 1.6866d+2
$ double precision, parameter :: f297 = 3.0223d0
$ double precision, parameter :: f298 = 1.9513d-1
$ double precision, parameter :: f299 = 1.1765d-1
$ double precision, parameter :: f300 = 9.0529d+2
$ double precision, parameter :: f301 = 2.6066d-7
$ double precision, parameter :: f302 = 9.7197d0
$ double precision, parameter :: f303 = 1.7701d-5
$ double precision, parameter :: f304 = 6.6551d-8
$ double precision, parameter :: f305 = 5.0763d-4
$ double precision, parameter :: f306 = 2.3931d-3
$ double precision, parameter :: f307 = 2.5725d-2
$ double precision, parameter :: f308 = 4.5061d-5
$ double precision, parameter :: f309 = 6.6731d-3
$ double precision, parameter :: f310 = 5.7186d+1
$ double precision, parameter :: f311 = 8.8754d-3
$ double precision, parameter :: f312 = 7.7495d+1
$ double precision, parameter :: f313 = 2.8382d-1
$ double precision, parameter :: f314 = 6.4143d-8
$ double precision, parameter :: f315 = 7.8518d+2

# Electron Collision Reaction
e + CH4 => e + CH4(v24)		! f0 * Bolsig+ CH4 -> CH4(v24)
e + CH4 => e + CH4(v13)		! f1 * Bolsig+ CH4 -> CH4(v13)
e + C2H6 => e + C2H6(v24)		! f2 * Bolsig+ C2H6 -> C2H6(v24)
e + C2H6 => e + C2H6(v13)		! f3 * Bolsig+ C2H6 -> C2H6(v13)
e + C2H4 => e + C2H4(v1)		! f4 * Bolsig+ C2H4 -> C2H4(v1)
e + C2H4 => e + C2H4(v2)		! f5 * Bolsig+ C2H4 -> C2H4(v2)
e + C2H2 => e + C2H2(v5)		! f6 * Bolsig+ C2H2 -> C2H2(v5)
e + C2H2 => e + C2H2(v2)		! f7 * Bolsig+ C2H2 -> C2H2(v2)
e + C2H2 => e + C2H2(v13)		! f8 * Bolsig+ C2H2 -> C2H2(v13)
e + C3H8 => e + C3H8(v1)		! f9 * Bolsig+ C3H8 -> C3H8(v1)
e + C3H8 => e + C3H8(v2)		! f10 * Bolsig+ C3H8 -> C3H8(v2)
e + C3H6 => e + C3H6(v)		! f11 * Bolsig+ C3H6 -> C3H6(v)
e + CH4 => e + CH3 + H		! f12 * Bolsig+ CH4 -> CH3 H
e + CH4(v24) => e + CH3 + H		! f12 * Bolsig+ CH4(v24) -> CH3 H
e + CH4(v13) => e + CH3 + H		! f12 * Bolsig+ CH4(v13) -> CH3 H
e + CH4 => e + CH2 + H2		! f13 * Bolsig+ CH4 -> CH2 H2
e + CH4(v24) => e + CH2 + H2		! f13 * Bolsig+ CH4(v24) -> CH2 H2
e + CH4(v13) => e + CH2 + H2		! f13 * Bolsig+ CH4(v13) -> CH2 H2
e + CH4 => e + CH + H2 + H		! f14 * Bolsig+ CH4 -> CH H2 H
e + CH4(v24) => e + CH + H2 + H		! f14 * Bolsig+ CH4(v24) -> CH H2 H
e + CH4(v13) => e + CH + H2 + H		! f14 * Bolsig+ CH4(v13) -> CH H2 H
e + CH4 => e + C + H2 + H2		! f15 * Bolsig+ CH4 -> C H2 H2
e + CH4(v24) => e + C + H2 + H2		! f15 * Bolsig+ CH4(v24) -> C H2 H2
e + CH4(v13) => e + C + H2 + H2		! f15 * Bolsig+ CH4(v13) -> C H2 H2
e + CH3 => e + CH2 + H		! f16 * Bolsig+ CH3 -> CH2 H
e + CH3 => e + CH + H2		! f17 * Bolsig+ CH3 -> CH H2
e + CH3 => e + C + H2 + H		! f18 * Bolsig+ CH3 -> C H2 H
e + CH2 => e + CH + H		! f19 * Bolsig+ CH2 -> CH H
e + CH2 => e + C + H2		! f20 * Bolsig+ CH2 -> C H2
e + CH2 => e + C + H + H		! f21 * Bolsig+ CH2 -> C H H
e + CH => e + C + H		! f22 * Bolsig+ CH -> C H
e + CH4 => e + e + CH4^+		! f23 * Bolsig+ CH4 -> CH4^+
e + CH4(v24) => e + e + CH4^+		! f23 * Bolsig+ CH4(v24) -> CH4^+
e + CH4(v13) => e + e + CH4^+		! f23 * Bolsig+ CH4(v13) -> CH4^+
e + CH4 => e + e + H + CH3^+		! f24 * Bolsig+ CH4 -> H CH3^+
e + CH4(v24) => e + e + H + CH3^+		! f24 * Bolsig+ CH4(v24) -> H CH3^+
e + CH4(v13) => e + e + H + CH3^+		! f24 * Bolsig+ CH4(v13) -> H CH3^+
e + CH4 => e + e + H2 + CH2^+		! f25 * Bolsig+ CH4 -> H2 CH2^+
e + CH4(v24) => e + e + H2 + CH2^+		! f25 * Bolsig+ CH4(v24) -> H2 CH2^+
e + CH4(v13) => e + e + H2 + CH2^+		! f25 * Bolsig+ CH4(v13) -> H2 CH2^+
e + CH4 => e + e + H2 + H + CH^+		! f26 * Bolsig+ CH4 -> H2 H CH^+
e + CH4(v24) => e + e + H2 + H + CH^+		! f26 * Bolsig+ CH4(v24) -> H2 H CH^+
e + CH4(v13) => e + e + H2 + H + CH^+		! f26 * Bolsig+ CH4(v13) -> H2 H CH^+
e + CH3 => e + e + CH3^+		! f27 * Bolsig+ CH3 -> CH3^+
e + CH3 => e + e + H + CH2^+		! f28 * Bolsig+ CH3 -> H CH2^+
e + CH3 => e + e + H2 + CH^+		! f29 * Bolsig+ CH3 -> H2 CH^+
e + CH2 => e + e + CH2^+		! f30 * Bolsig+ CH2 -> CH2^+
e + CH2 => e + e + H + CH^+		! f31 * Bolsig+ CH2 -> H CH^+
e + CH => e + e + CH^+		! f32 * Bolsig+ CH -> CH^+
e + C2H6 => e + C2H5 + H		! f33 * Bolsig+ C2H6 -> C2H5 H
e + C2H6(v24) => e + C2H5 + H		! f33 * Bolsig+ C2H6(v24) -> C2H5 H
e + C2H6(v13) => e + C2H5 + H		! f33 * Bolsig+ C2H6(v13) -> C2H5 H
e + C2H6 => e + C2H4 + H2		! f34 * Bolsig+ C2H6 -> C2H4 H2
e + C2H6(v24) => e + C2H4 + H2		! f34 * Bolsig+ C2H6(v24) -> C2H4 H2
e + C2H6(v13) => e + C2H4 + H2		! f34 * Bolsig+ C2H6(v13) -> C2H4 H2
e + C2H6 => e + C2H3 + H2 + H		! f35 * Bolsig+ C2H6 -> C2H3 H2 H
e + C2H6(v24) => e + C2H3 + H2 + H		! f35 * Bolsig+ C2H6(v24) -> C2H3 H2 H
e + C2H6(v13) => e + C2H3 + H2 + H		! f35 * Bolsig+ C2H6(v13) -> C2H3 H2 H
e + C2H6 => e + C2H2 + H2 + H2		! f36 * Bolsig+ C2H6 -> C2H2 H2 H2
e + C2H6(v24) => e + C2H2 + H2 + H2		! f36 * Bolsig+ C2H6(v24) -> C2H2 H2 H2
e + C2H6(v13) => e + C2H2 + H2 + H2		! f36 * Bolsig+ C2H6(v13) -> C2H2 H2 H2
e + C2H6 => e + CH4 + CH2		! f37 * Bolsig+ C2H6 -> CH4 CH2
e + C2H6(v24) => e + CH4 + CH2		! f37 * Bolsig+ C2H6(v24) -> CH4 CH2
e + C2H6(v13) => e + CH4 + CH2		! f37 * Bolsig+ C2H6(v13) -> CH4 CH2
e + C2H6 => e + CH3 + CH3		! f38 * Bolsig+ C2H6 -> CH3 CH3
e + C2H6(v24) => e + CH3 + CH3		! f38 * Bolsig+ C2H6(v24) -> CH3 CH3
e + C2H6(v13) => e + CH3 + CH3		! f38 * Bolsig+ C2H6(v13) -> CH3 CH3
e + C2H5 => e + C2H4 + H		! f39 * Bolsig+ C2H5 -> C2H4 H
e + C2H5 => e + C2H3 + H2		! f40 * Bolsig+ C2H5 -> C2H3 H2
e + C2H5 => e + C2H3 + H + H		! f41 * Bolsig+ C2H5 -> C2H3 H H
e + C2H5 => e + C2H2 + H2 + H		! f42 * Bolsig+ C2H5 -> C2H2 H2 H
e + C2H5 => e + CH4 + CH		! f43 * Bolsig+ C2H5 -> CH4 CH
e + C2H5 => e + CH3 + CH2		! f44 * Bolsig+ C2H5 -> CH3 CH2
e + C2H4 => e + C2H3 + H		! f45 * Bolsig+ C2H4 -> C2H3 H
e + C2H4(v1) => e + C2H3 + H		! f45 * Bolsig+ C2H4(v1) -> C2H3 H
e + C2H4(v2) => e + C2H3 + H		! f45 * Bolsig+ C2H4(v2) -> C2H3 H
e + C2H4 => e + C2H2 + H2		! f46 * Bolsig+ C2H4 -> C2H2 H2
e + C2H4(v1) => e + C2H2 + H2		! f46 * Bolsig+ C2H4(v1) -> C2H2 H2
e + C2H4(v2) => e + C2H2 + H2		! f46 * Bolsig+ C2H4(v2) -> C2H2 H2
e + C2H4 => e + C2H2 + H + H		! f47 * Bolsig+ C2H4 -> C2H2 H H
e + C2H4(v1) => e + C2H2 + H + H		! f47 * Bolsig+ C2H4(v1) -> C2H2 H H
e + C2H4(v2) => e + C2H2 + H + H		! f47 * Bolsig+ C2H4(v2) -> C2H2 H H
e + C2H4 => e + CH3 + CH		! f48 * Bolsig+ C2H4 -> CH3 CH
e + C2H4(v1) => e + CH3 + CH		! f48 * Bolsig+ C2H4(v1) -> CH3 CH
e + C2H4(v2) => e + CH3 + CH		! f48 * Bolsig+ C2H4(v2) -> CH3 CH
e + C2H4 => e + CH2 + CH2		! f49 * Bolsig+ C2H4 -> CH2 CH2
e + C2H4(v1) => e + CH2 + CH2		! f49 * Bolsig+ C2H4(v1) -> CH2 CH2
e + C2H4(v2) => e + CH2 + CH2		! f49 * Bolsig+ C2H4(v2) -> CH2 CH2
e + C2H3 => e + C2H2 + H		! f50 * Bolsig+ C2H3 -> C2H2 H
e + C2H3 => e + CH2 + CH		! f51 * Bolsig+ C2H3 -> CH2 CH
e + C2H2 => e + CH + CH		! f52 * Bolsig+ C2H2 -> CH CH
e + C2H2(v5) => e + CH + CH		! f52 * Bolsig+ C2H2(v5) -> CH CH
e + C2H2(v2) => e + CH + CH		! f52 * Bolsig+ C2H2(v2) -> CH CH
e + C2H2(v13) => e + CH + CH		! f52 * Bolsig+ C2H2(v13) -> CH CH
e + C2H6 => e + e + C2H6^+		! f53 * Bolsig+ C2H6 -> C2H6^+
e + C2H6(v24) => e + e + C2H6^+		! f53 * Bolsig+ C2H6(v24) -> C2H6^+
e + C2H6(v13) => e + e + C2H6^+		! f53 * Bolsig+ C2H6(v13) -> C2H6^+
e + C2H6 => e + e + H + C2H5^+		! f54 * Bolsig+ C2H6 -> H C2H5^+
e + C2H6(v24) => e + e + H + C2H5^+		! f54 * Bolsig+ C2H6(v24) -> H C2H5^+
e + C2H6(v13) => e + e + H + C2H5^+		! f54 * Bolsig+ C2H6(v13) -> H C2H5^+
e + C2H6 => e + e + H2 + C2H4^+		! f55 * Bolsig+ C2H6 -> H2 C2H4^+
e + C2H6(v24) => e + e + H2 + C2H4^+		! f55 * Bolsig+ C2H6(v24) -> H2 C2H4^+
e + C2H6(v13) => e + e + H2 + C2H4^+		! f55 * Bolsig+ C2H6(v13) -> H2 C2H4^+
e + C2H6 => e + e + H2 + H + C2H3^+		! f56 * Bolsig+ C2H6 -> H2 H C2H3^+
e + C2H6(v24) => e + e + H2 + H + C2H3^+		! f56 * Bolsig+ C2H6(v24) -> H2 H C2H3^+
e + C2H6(v13) => e + e + H2 + H + C2H3^+		! f56 * Bolsig+ C2H6(v13) -> H2 H C2H3^+
e + C2H6 => e + e + H2 + H2 + C2H2^+		! f57 * Bolsig+ C2H6 -> H2 H2 C2H2^+
e + C2H6(v24) => e + e + H2 + H2 + C2H2^+		! f57 * Bolsig+ C2H6(v24) -> H2 H2 C2H2^+
e + C2H6(v13) => e + e + H2 + H2 + C2H2^+		! f57 * Bolsig+ C2H6(v13) -> H2 H2 C2H2^+
e + C2H6 => e + e + CH3 + CH3^+		! f58 * Bolsig+ C2H6 -> CH3 CH3^+
e + C2H6(v24) => e + e + CH3 + CH3^+		! f58 * Bolsig+ C2H6(v24) -> CH3 CH3^+
e + C2H6(v13) => e + e + CH3 + CH3^+		! f58 * Bolsig+ C2H6(v13) -> CH3 CH3^+
e + C2H6 => e + e + CH4 + CH2^+		! f59 * Bolsig+ C2H6 -> CH4 CH2^+
e + C2H6(v24) => e + e + CH4 + CH2^+		! f59 * Bolsig+ C2H6(v24) -> CH4 CH2^+
e + C2H6(v13) => e + e + CH4 + CH2^+		! f59 * Bolsig+ C2H6(v13) -> CH4 CH2^+
e + C2H5 => e + e + C2H5^+		! f60 * Bolsig+ C2H5 -> C2H5^+
e + C2H5 => e + e + H + C2H4^+		! f61 * Bolsig+ C2H5 -> H C2H4^+
e + C2H5 => e + e + H2 + C2H3^+		! f62 * Bolsig+ C2H5 -> H2 C2H3^+
e + C2H5 => e + e + H2 + H + C2H2^+		! f63 * Bolsig+ C2H5 -> H2 H C2H2^+
e + C2H5 => e + e + CH2 + CH3^+		! f64 * Bolsig+ C2H5 -> CH2 CH3^+
e + C2H5 => e + e + CH3 + CH2^+		! f65 * Bolsig+ C2H5 -> CH3 CH2^+
e + C2H5 => e + e + CH4 + CH^+		! f66 * Bolsig+ C2H5 -> CH4 CH^+
e + C2H4 => e + e + C2H4^+		! f67 * Bolsig+ C2H4 -> C2H4^+
e + C2H4(v1) => e + e + C2H4^+		! f67 * Bolsig+ C2H4(v1) -> C2H4^+
e + C2H4(v2) => e + e + C2H4^+		! f67 * Bolsig+ C2H4(v2) -> C2H4^+
e + C2H4 => e + e + H + C2H3^+		! f68 * Bolsig+ C2H4 -> H C2H3^+
e + C2H4(v1) => e + e + H + C2H3^+		! f68 * Bolsig+ C2H4(v1) -> H C2H3^+
e + C2H4(v2) => e + e + H + C2H3^+		! f68 * Bolsig+ C2H4(v2) -> H C2H3^+
e + C2H4 => e + e + CH + CH3^+		! f69 * Bolsig+ C2H4 -> CH CH3^+
e + C2H4(v1) => e + e + CH + CH3^+		! f69 * Bolsig+ C2H4(v1) -> CH CH3^+
e + C2H4(v2) => e + e + CH + CH3^+		! f69 * Bolsig+ C2H4(v2) -> CH CH3^+
e + C2H4 => e + e + CH2 + CH2^+		! f70 * Bolsig+ C2H4 -> CH2 CH2^+
e + C2H4(v1) => e + e + CH2 + CH2^+		! f70 * Bolsig+ C2H4(v1) -> CH2 CH2^+
e + C2H4(v2) => e + e + CH2 + CH2^+		! f70 * Bolsig+ C2H4(v2) -> CH2 CH2^+
e + C2H4 => e + e + CH3 + CH^+		! f71 * Bolsig+ C2H4 -> CH3 CH^+
e + C2H4(v1) => e + e + CH3 + CH^+		! f71 * Bolsig+ C2H4(v1) -> CH3 CH^+
e + C2H4(v2) => e + e + CH3 + CH^+		! f71 * Bolsig+ C2H4(v2) -> CH3 CH^+
e + C2H3 => e + e + C2H3^+		! f72 * Bolsig+ C2H3 -> C2H3^+
e + C2H3 => e + e + H + C2H2^+		! f73 * Bolsig+ C2H3 -> H C2H2^+
e + C2H3 => e + e + CH + CH2^+		! f74 * Bolsig+ C2H3 -> CH CH2^+
e + C2H3 => e + e + CH2 + CH^+		! f75 * Bolsig+ C2H3 -> CH2 CH^+
e + C2H3 => e + e + C2H2 + H^+		! f76 * Bolsig+ C2H3 -> C2H2 H^+
e + C2H2 => e + e + C2H2^+		! f77 * Bolsig+ C2H2 -> C2H2^+
e + C2H2(v5) => e + e + C2H2^+		! f77 * Bolsig+ C2H2(v5) -> C2H2^+
e + C2H2(v2) => e + e + C2H2^+		! f77 * Bolsig+ C2H2(v2) -> C2H2^+
e + C2H2(v13) => e + e + C2H2^+		! f77 * Bolsig+ C2H2(v13) -> C2H2^+
e + C2H2 => e + e + CH + CH^+		! f78 * Bolsig+ C2H2 -> CH CH^+
e + C2H2(v5) => e + e + CH + CH^+		! f78 * Bolsig+ C2H2(v5) -> CH CH^+
e + C2H2(v2) => e + e + CH + CH^+		! f78 * Bolsig+ C2H2(v2) -> CH CH^+
e + C2H2(v13) => e + e + CH + CH^+		! f78 * Bolsig+ C2H2(v13) -> CH CH^+
e + C3H8 => e + C3H7 + H		! f79 * Bolsig+ C3H8 -> C3H7 H
e + C3H8(v1) => e + C3H7 + H		! f79 * Bolsig+ C3H8(v1) -> C3H7 H
e + C3H8(v2) => e + C3H7 + H		! f79 * Bolsig+ C3H8(v2) -> C3H7 H
e + C3H8 => e + C3H6 + H2		! f80 * Bolsig+ C3H8 -> C3H6 H2
e + C3H8(v1) => e + C3H6 + H2		! f80 * Bolsig+ C3H8(v1) -> C3H6 H2
e + C3H8(v2) => e + C3H6 + H2		! f80 * Bolsig+ C3H8(v2) -> C3H6 H2
e + C3H7 => e + C3H6 + H		! f81 * Bolsig+ C3H7 -> C3H6 H
e + C3H8 => e + e + C3H8^+		! f82 * Bolsig+ C3H8 -> C3H8^+
e + C3H8(v1) => e + e + C3H8^+		! f82 * Bolsig+ C3H8(v1) -> C3H8^+
e + C3H8(v2) => e + e + C3H8^+		! f82 * Bolsig+ C3H8(v2) -> C3H8^+
e + C3H8 => e + e + H + C3H7^+		! f83 * Bolsig+ C3H8 -> H C3H7^+
e + C3H8(v1) => e + e + H + C3H7^+		! f83 * Bolsig+ C3H8(v1) -> H C3H7^+
e + C3H8(v2) => e + e + H + C3H7^+		! f83 * Bolsig+ C3H8(v2) -> H C3H7^+
e + C3H8 => e + e + H2 + C3H6^+		! f84 * Bolsig+ C3H8 -> H2 C3H6^+
e + C3H8(v1) => e + e + H2 + C3H6^+		! f84 * Bolsig+ C3H8(v1) -> H2 C3H6^+
e + C3H8(v2) => e + e + H2 + C3H6^+		! f84 * Bolsig+ C3H8(v2) -> H2 C3H6^+
e + C3H7 => e + e + C3H7^+		! f85 * Bolsig+ C3H7 -> C3H7^+
e + C3H7 => e + e + H + C3H6^+		! f86 * Bolsig+ C3H7 -> H C3H6^+
e + C3H6 => e + e + C3H6^+		! f87 * Bolsig+ C3H6 -> C3H6^+
e + C3H6(v) => e + e + C3H6^+		! f87 * Bolsig+ C3H6(v) -> C3H6^+
e + C3H6 => e + C2H2 + CH4		! f88 * Bolsig+ C3H6 -> C2H2 CH4
e + C3H6(v) => e + C2H2 + CH4		! f88 * Bolsig+ C3H6(v) -> C2H2 CH4
e + C3H6 => e + e + C2H2 + CH4^+		! f89 * Bolsig+ C3H6 -> C2H2 CH4^+
e + C3H6(v) => e + e + C2H2 + CH4^+		! f89 * Bolsig+ C3H6(v) -> C2H2 CH4^+

# Ion Recombination Reaction
e + e + CH^+ => e + CH		! f90 * 1.00d0
e + e + CH2^+ => e + CH2		! f91 * 1.00d0
e + e + CH3^+ => e + CH3		! f92 * 1.00d0
e + e + CH4^+ => e + CH4		! f93 * 1.00d0
e + e + C2H2^+ => e + C2H2		! f94 * 1.00d0
e + e + C2H3^+ => e + C2H3		! f95 * 1.00d0
e + e + C2H4^+ => e + C2H4		! f96 * 1.00d0
e + e + C2H5^+ => e + C2H5		! f97 * 1.00d0
e + e + C2H6^+ => e + C2H6		! f98 * 1.00d0
e + e + C3H6^+ => e + C3H6		! f99 * 1.00d0
e + e + C3H7^+ => e + C3H7		! f100 * 1.00d0
e + e + C3H8^+ => e + C3H8		! f101 * 1.00d0

# Gas Phase Reaction
e + CH4^+ => CH3 + H		! f102 * 1.18d-08 * (300./Tgas)**0.5
e + CH4^+ => CH2 + H + H		! f103 * 2.42d-08 * (300./Tgas)**0.5
e + CH4^+ => CH + H2 + H		! f104 * 1.41d-08 * (300./Tgas)**0.5
e + CH3^+ => CH2 + H		! f105 * 2.25d-08 * (300./Tgas)**0.5
e + CH3^+ => CH + H2		! f106 * 7.88d-09 * (300./Tgas)**0.5
e + CH3^+ => CH + H + H		! f107 * 9.00d-09 * (300./Tgas)**0.5
e + CH3^+ => C + H2 + H		! f108 * 1.69d-08 * (300./Tgas)**0.5
e + CH2^+ => CH + H		! f109 * 1.00d-08 * (300./Tgas)**0.5
e + CH2^+ => C + H2		! f110 * 4.82d-09 * (300./Tgas)**0.5
e + CH2^+ => C + H + H		! f111 * 2.53d-08 * (300./Tgas)**0.5
e + CH^+ => C + H		! f112 * 3.23d-08 * (300./Tgas)**0.42
e + C2H6^+ => C2H5 + H		! f113 * 2.19d-08 * (300./Tgas)**0.71
e + C2H6^+ => C2H4 + H + H		! f114 * 3.36d-08 * (300./Tgas)**0.71
e + C2H5^+ => C2H4 + H		! f115 * 7.70d-09 * (300./Tgas)**0.71
e + C2H5^+ => C2H3 + H + H		! f116 * 1.92d-08 * (300./Tgas)**0.71
e + C2H5^+ => C2H2 + H2 + H		! f117 * 1.60d-08 * (300./Tgas)**0.71
e + C2H5^+ => C2H2 + H + H + H		! f118 * 8.98d-09 * (300./Tgas)**0.71
e + C2H5^+ => CH3 + CH2		! f119 * 9.62d-09 * (300./Tgas)**0.71
e + C2H4^+ => C2H3 + H		! f120 * 8.29d-09 * (300./Tgas)**0.71
e + C2H4^+ => C2H2 + H + H		! f121 * 3.43d-08 * (300./Tgas)**0.71
e + C2H3^+ => C2H2 + H		! f122 * 1.34d-08 * (300./Tgas)**0.71
e + C2H2^+ => CH + CH		! f123 * 4.87d-09 * (300./Tgas)**0.71
e + H2^+ => H + H		! f124 * 3.17d21/(6.022d23 * Te**4.5)
e + H3^+ => H + H2		! f125 * 3.17d21/(6.022d23 * Te**4.5)
H2 + H2^+ => H + H3^+		! f126 * 2.11d-09
C2H6 + CH4^+ => CH4 + H2 + C2H4^+		! f127 * 1.91d-9
C2H6(v24) + CH4^+ => CH4 + H2 + C2H4^+		! f127 * 1.91d-9
C2H6(v13) + CH4^+ => CH4 + H2 + C2H4^+		! f127 * 1.91d-9
C2H4 + CH4^+ => CH3 + C2H5^+		! f128 * 4.23d-10