ELEMENTS
e C H
END

SPECIES
e C CH CH^+ CH2 CH2^+ CH3 CH3^+ CH4 CH4(v13) CH4(v24) CH4^+ C2H2 C2H2(v13) C2H2(v2) C2H2(v5) C2H2^+ C2H3 C2H3^+ C2H4 C2H4(v1) C2H4(v2) C2H4^+ C2H5 C2H5^+
C2H6 C2H6(v13) C2H6(v24) C2H6^+ C3H5 C3H6 C3H6(v) C3H6^+ C3H7 C3H7^+ C3H8 C3H8(v1) C3H8(v2) C3H8^+ C4H9 C4H9H C2H C5H12 H H2 H2^+ H3^+ H^+
END

BOLSIG
CH CH2 CH3 CH4 CH4(v13) CH4(v24) C2H2 C2H2(v13) C2H2(v2) C2H2(v5) C2H3 C2H4 C2H4(v1) C2H4(v2) C2H5 C2H6 C2H6(v13) C2H6(v24) C3H6 C3H6(v) C3H7 C3H8 C3H8(v1) C3H8(v2)
END

REACTIONS
# Gas Constant
$ double precision, parameter :: R = 8.314d-3

# Compensation Parameters
$ double precision, parameter :: f0 = 3.8889d-6
$ double precision, parameter :: f1 = 4.2637d+1
$ double precision, parameter :: f2 = 4.5515d-4
$ double precision, parameter :: f3 = 5.6111d-6
$ double precision, parameter :: f4 = 1.1669d-6
$ double precision, parameter :: f5 = 1.9471d-2
$ double precision, parameter :: f6 = 3.2717d0
$ double precision, parameter :: f7 = 8.2308d+1
$ double precision, parameter :: f8 = 8.9486d-8
$ double precision, parameter :: f9 = 3.7732d-1
$ double precision, parameter :: f10 = 3.6408d-8
$ double precision, parameter :: f11 = 1.4155d-3
$ double precision, parameter :: f12 = 1.4778d-1
$ double precision, parameter :: f13 = 2.4335d-5
$ double precision, parameter :: f14 = 9.8048d-3
$ double precision, parameter :: f15 = 6.3260d-6
$ double precision, parameter :: f16 = 2.2828d-5
$ double precision, parameter :: f17 = 6.7853d-7
$ double precision, parameter :: f18 = 1.0541d+1
$ double precision, parameter :: f19 = 1.7349d-3
$ double precision, parameter :: f20 = 2.1034d-8
$ double precision, parameter :: f21 = 3.0623d0
$ double precision, parameter :: f22 = 2.4504d-2
$ double precision, parameter :: f23 = 1.6430d0
$ double precision, parameter :: f24 = 4.3863d-7
$ double precision, parameter :: f25 = 7.7444d-6
$ double precision, parameter :: f26 = 1.2905d+1
$ double precision, parameter :: f27 = 5.4213d-6
$ double precision, parameter :: f28 = 4.1913d-1
$ double precision, parameter :: f29 = 4.5664d-8
$ double precision, parameter :: f30 = 1.0173d0
$ double precision, parameter :: f31 = 2.3847d+1
$ double precision, parameter :: f32 = 9.2058d+2
$ double precision, parameter :: f33 = 1.1169d0
$ double precision, parameter :: f34 = 3.6422d-1
$ double precision, parameter :: f35 = 3.0237d-6
$ double precision, parameter :: f36 = 4.3243d0
$ double precision, parameter :: f37 = 1.4029d-1
$ double precision, parameter :: f38 = 4.4079d-2
$ double precision, parameter :: f39 = 5.5903d-8
$ double precision, parameter :: f40 = 1.1485d+1
$ double precision, parameter :: f41 = 2.0824d-4
$ double precision, parameter :: f42 = 1.4161d-6
$ double precision, parameter :: f43 = 4.1802d-2
$ double precision, parameter :: f44 = 2.2386d+2
$ double precision, parameter :: f45 = 8.0226d+1
$ double precision, parameter :: f46 = 9.0093d+1
$ double precision, parameter :: f47 = 1.4461d-8
$ double precision, parameter :: f48 = 2.5712d-2
$ double precision, parameter :: f49 = 1.2787d+2
$ double precision, parameter :: f50 = 1.9317d-3
$ double precision, parameter :: f51 = 1.7170d-7
$ double precision, parameter :: f52 = 3.1316d-7
$ double precision, parameter :: f53 = 4.0883d-4
$ double precision, parameter :: f54 = 9.9715d+1
$ double precision, parameter :: f55 = 5.4288d+1
$ double precision, parameter :: f56 = 6.1956d0
$ double precision, parameter :: f57 = 5.1609d-3
$ double precision, parameter :: f58 = 2.2075d-1
$ double precision, parameter :: f59 = 7.3440d0
$ double precision, parameter :: f60 = 7.7531d0
$ double precision, parameter :: f61 = 3.7147d-6
$ double precision, parameter :: f62 = 2.6952d-2
$ double precision, parameter :: f63 = 1.3652d-4
$ double precision, parameter :: f64 = 9.6265d-3
$ double precision, parameter :: f65 = 7.0333d+2
$ double precision, parameter :: f66 = 4.3623d-1
$ double precision, parameter :: f67 = 9.2236d+2
$ double precision, parameter :: f68 = 2.5789d-2
$ double precision, parameter :: f69 = 1.1640d-6
$ double precision, parameter :: f70 = 1.8751d-4
$ double precision, parameter :: f71 = 2.8197d+1
$ double precision, parameter :: f72 = 1.4791d-1
$ double precision, parameter :: f73 = 3.5413d-4
$ double precision, parameter :: f74 = 7.1173d-4
$ double precision, parameter :: f75 = 2.8169d-4
$ double precision, parameter :: f76 = 1.4305d0
$ double precision, parameter :: f77 = 4.4342d-4
$ double precision, parameter :: f78 = 7.3151d+2
$ double precision, parameter :: f79 = 1.3455d-5
$ double precision, parameter :: f80 = 8.4286d0
$ double precision, parameter :: f81 = 1.2119d+1
$ double precision, parameter :: f82 = 9.5958d-7
$ double precision, parameter :: f83 = 2.8165d-4
$ double precision, parameter :: f84 = 6.9028d+1
$ double precision, parameter :: f85 = 2.5501d0
$ double precision, parameter :: f86 = 2.1251d-6
$ double precision, parameter :: f87 = 5.1290d-4
$ double precision, parameter :: f88 = 2.6686d-7
$ double precision, parameter :: f89 = 3.2366d+2
$ double precision, parameter :: f90 = 1.5326d-6
$ double precision, parameter :: f91 = 3.6667d-5
$ double precision, parameter :: f92 = 1.0991d-1
$ double precision, parameter :: f93 = 1.9441d-2
$ double precision, parameter :: f94 = 2.3982d-3
$ double precision, parameter :: f95 = 5.6981d+1
$ double precision, parameter :: f96 = 1.0173d-3
$ double precision, parameter :: f97 = 9.5957d-8
$ double precision, parameter :: f98 = 3.6184d-6
$ double precision, parameter :: f99 = 3.3857d-8
$ double precision, parameter :: f100 = 6.8623d+1
$ double precision, parameter :: f101 = 1.3145d-1
$ double precision, parameter :: f102 = 1.1672d-3
$ double precision, parameter :: f103 = 2.5795d-7
$ double precision, parameter :: f104 = 6.2639d-3
$ double precision, parameter :: f105 = 5.5517d-2
$ double precision, parameter :: f106 = 2.4906d-8
$ double precision, parameter :: f107 = 2.3508d-7
$ double precision, parameter :: f108 = 1.8503d0
$ double precision, parameter :: f109 = 1.4623d+2
$ double precision, parameter :: f110 = 7.6530d-7
$ double precision, parameter :: f111 = 2.7110d-7
$ double precision, parameter :: f112 = 5.2251d-3
$ double precision, parameter :: f113 = 1.0294d+2
$ double precision, parameter :: f114 = 2.1372d-5
$ double precision, parameter :: f115 = 4.0828d-4
$ double precision, parameter :: f116 = 1.7125d-6
$ double precision, parameter :: f117 = 2.3295d+2
$ double precision, parameter :: f118 = 1.3572d-4
$ double precision, parameter :: f119 = 4.8421d-5
$ double precision, parameter :: f120 = 5.2462d-8
$ double precision, parameter :: f121 = 4.8161d-7
$ double precision, parameter :: f122 = 4.6283d+2
$ double precision, parameter :: f123 = 1.1769d-3
$ double precision, parameter :: f124 = 4.0224d-8
$ double precision, parameter :: f125 = 8.6983d+1
$ double precision, parameter :: f126 = 6.6152d-7
$ double precision, parameter :: f127 = 5.4770d-3
$ double precision, parameter :: f128 = 1.0886d0
$ double precision, parameter :: f129 = 3.5889d-5
$ double precision, parameter :: f130 = 5.7636d-6
$ double precision, parameter :: f131 = 1.8387d+1
$ double precision, parameter :: f132 = 2.0423d-5
$ double precision, parameter :: f133 = 4.5936d-3
$ double precision, parameter :: f134 = 8.8451d-4
$ double precision, parameter :: f135 = 3.2560d+2
$ double precision, parameter :: f136 = 5.0052d-6
$ double precision, parameter :: f137 = 8.5533d+1
$ double precision, parameter :: f138 = 1.4860d0
$ double precision, parameter :: f139 = 8.1416d+2
$ double precision, parameter :: f140 = 5.3519d-4
$ double precision, parameter :: f141 = 1.1198d-5
$ double precision, parameter :: f142 = 4.1245d-3
$ double precision, parameter :: f143 = 4.0834d+1
$ double precision, parameter :: f144 = 6.5296d-2
$ double precision, parameter :: f145 = 1.2938d-6
$ double precision, parameter :: f146 = 1.5271d0
$ double precision, parameter :: f147 = 3.0298d-3
$ double precision, parameter :: f148 = 1.0088d-5
$ double precision, parameter :: f149 = 9.0298d0
$ double precision, parameter :: f150 = 5.1376d+1
$ double precision, parameter :: f151 = 3.4295d-7
$ double precision, parameter :: f152 = 1.5806d-4
$ double precision, parameter :: f153 = 1.2718d-6
$ double precision, parameter :: f154 = 1.6280d+2
$ double precision, parameter :: f155 = 4.0599d-5
$ double precision, parameter :: f156 = 2.6638d+1
$ double precision, parameter :: f157 = 3.5831d0
$ double precision, parameter :: f158 = 3.4290d-2
$ double precision, parameter :: f159 = 2.6189d-4
$ double precision, parameter :: f160 = 7.0982d-2
$ double precision, parameter :: f161 = 4.0927d-2
$ double precision, parameter :: f162 = 2.4199d-4
$ double precision, parameter :: f163 = 1.3504d+1
$ double precision, parameter :: f164 = 2.1242d-6
$ double precision, parameter :: f165 = 8.0031d-8
$ double precision, parameter :: f166 = 2.0168d-8
$ double precision, parameter :: f167 = 1.3675d-5
$ double precision, parameter :: f168 = 6.2358d+2
$ double precision, parameter :: f169 = 3.2460d-8
$ double precision, parameter :: f170 = 1.0235d0
$ double precision, parameter :: f171 = 1.2676d+1
$ double precision, parameter :: f172 = 8.9058d-5
$ double precision, parameter :: f173 = 2.9485d-1
$ double precision, parameter :: f174 = 2.3831d+2
$ double precision, parameter :: f175 = 2.9451d-7
$ double precision, parameter :: f176 = 2.5724d-4
$ double precision, parameter :: f177 = 3.2495d-5
$ double precision, parameter :: f178 = 8.5904d-3
$ double precision, parameter :: f179 = 3.5272d+2
$ double precision, parameter :: f180 = 2.1499d-3
$ double precision, parameter :: f181 = 2.0535d-2
$ double precision, parameter :: f182 = 1.0329d-5
$ double precision, parameter :: f183 = 3.7070d-1
$ double precision, parameter :: f184 = 3.0236d-5
$ double precision, parameter :: f185 = 3.6198d0
$ double precision, parameter :: f186 = 6.4921d-2
$ double precision, parameter :: f187 = 3.4275d-3
$ double precision, parameter :: f188 = 3.6080d-7
$ double precision, parameter :: f189 = 4.1760d-1
$ double precision, parameter :: f190 = 4.3977d-4
$ double precision, parameter :: f191 = 3.9207d-8
$ double precision, parameter :: f192 = 2.4732d-6
$ double precision, parameter :: f193 = 2.7355d-8
$ double precision, parameter :: f194 = 1.4741d-1
$ double precision, parameter :: f195 = 6.9485d-8
$ double precision, parameter :: f196 = 1.3077d+1
$ double precision, parameter :: f197 = 7.5631d-8
$ double precision, parameter :: f198 = 2.3538d-5
$ double precision, parameter :: f199 = 4.7060d-5
$ double precision, parameter :: f200 = 1.7937d+1
$ double precision, parameter :: f201 = 4.2008d0
$ double precision, parameter :: f202 = 4.6795d-2
$ double precision, parameter :: f203 = 2.3649d-7
$ double precision, parameter :: f204 = 8.4632d+2
$ double precision, parameter :: f205 = 9.6899d-1
$ double precision, parameter :: f206 = 9.7975d-8
$ double precision, parameter :: f207 = 4.7814d+2
$ double precision, parameter :: f208 = 3.8381d-6
$ double precision, parameter :: f209 = 2.6356d-4
$ double precision, parameter :: f210 = 6.5775d-4
$ double precision, parameter :: f211 = 7.7518d-4
$ double precision, parameter :: f212 = 1.7738d-3
$ double precision, parameter :: f213 = 1.9889d-3
$ double precision, parameter :: f214 = 1.2247d-2
$ double precision, parameter :: f215 = 1.7194d-6
$ double precision, parameter :: f216 = 1.6005d0
$ double precision, parameter :: f217 = 3.7136d-4
$ double precision, parameter :: f218 = 2.1769d-7
$ double precision, parameter :: f219 = 2.9019d-4
$ double precision, parameter :: f220 = 2.9852d-4
$ double precision, parameter :: f221 = 1.2085d-6
$ double precision, parameter :: f222 = 1.3027d0
$ double precision, parameter :: f223 = 2.1567d+1
$ double precision, parameter :: f224 = 2.1807d+1
$ double precision, parameter :: f225 = 3.9612d0
$ double precision, parameter :: f226 = 2.1507d-7
$ double precision, parameter :: f227 = 1.2411d-2
$ double precision, parameter :: f228 = 3.4852d-4
$ double precision, parameter :: f229 = 1.3369d-5
$ double precision, parameter :: f230 = 2.0373d-8
$ double precision, parameter :: f231 = 1.9138d+1
$ double precision, parameter :: f232 = 8.4073d-1
$ double precision, parameter :: f233 = 2.0345d-5
$ double precision, parameter :: f234 = 1.4982d+2
$ double precision, parameter :: f235 = 1.1405d-8
$ double precision, parameter :: f236 = 6.4019d-2
$ double precision, parameter :: f237 = 3.6614d-3
$ double precision, parameter :: f238 = 6.9924d-4
$ double precision, parameter :: f239 = 2.0998d+1
$ double precision, parameter :: f240 = 7.7291d-6
$ double precision, parameter :: f241 = 1.1394d-2
$ double precision, parameter :: f242 = 2.2770d-6
$ double precision, parameter :: f243 = 3.9902d0
$ double precision, parameter :: f244 = 1.6487d-2
$ double precision, parameter :: f245 = 4.1568d-8
$ double precision, parameter :: f246 = 2.4406d-6
$ double precision, parameter :: f247 = 2.3879d0
$ double precision, parameter :: f248 = 2.5704d+2
$ double precision, parameter :: f249 = 1.4533d-3
$ double precision, parameter :: f250 = 3.1867d-4
$ double precision, parameter :: f251 = 1.5216d-1
$ double precision, parameter :: f252 = 1.3231d-3
$ double precision, parameter :: f253 = 3.8540d-1
$ double precision, parameter :: f254 = 2.1407d+1
$ double precision, parameter :: f255 = 4.4906d0
$ double precision, parameter :: f256 = 2.1821d0
$ double precision, parameter :: f257 = 2.4597d-4
$ double precision, parameter :: f258 = 6.7575d-5
$ double precision, parameter :: f259 = 4.6529d-4
$ double precision, parameter :: f260 = 1.5191d-1
$ double precision, parameter :: f261 = 4.4058d-7
$ double precision, parameter :: f262 = 9.3744d-7
$ double precision, parameter :: f263 = 5.2867d-8
$ double precision, parameter :: f264 = 1.8541d+2
$ double precision, parameter :: f265 = 2.6266d+2
$ double precision, parameter :: f266 = 7.2570d-1
$ double precision, parameter :: f267 = 5.6629d+1
$ double precision, parameter :: f268 = 9.6493d-6
$ double precision, parameter :: f269 = 7.9849d+1
$ double precision, parameter :: f270 = 1.0136d-1
$ double precision, parameter :: f271 = 6.6145d-3
$ double precision, parameter :: f272 = 1.1454d+1
$ double precision, parameter :: f273 = 3.8984d-3
$ double precision, parameter :: f274 = 1.9123d-5
$ double precision, parameter :: f275 = 1.1301d0
$ double precision, parameter :: f276 = 3.3105d-7
$ double precision, parameter :: f277 = 6.6288d0
$ double precision, parameter :: f278 = 4.8402d-8
$ double precision, parameter :: f279 = 1.4927d-6
$ double precision, parameter :: f280 = 2.7732d+2
$ double precision, parameter :: f281 = 3.8914d-7
$ double precision, parameter :: f282 = 5.9798d-8
$ double precision, parameter :: f283 = 4.3758d0
$ double precision, parameter :: f284 = 1.7024d-8
$ double precision, parameter :: f285 = 4.0773d0
$ double precision, parameter :: f286 = 5.9726d-7
$ double precision, parameter :: f287 = 9.1016d-7
$ double precision, parameter :: f288 = 4.8078d+1
$ double precision, parameter :: f289 = 6.8762d-7
$ double precision, parameter :: f290 = 2.5787d-5
$ double precision, parameter :: f291 = 1.5258d-3
$ double precision, parameter :: f292 = 1.4381d+2
$ double precision, parameter :: f293 = 7.6759d-3
$ double precision, parameter :: f294 = 2.0231d-8
$ double precision, parameter :: f295 = 6.2570d+2
$ double precision, parameter :: f296 = 1.3956d-1
$ double precision, parameter :: f297 = 2.1116d-3
$ double precision, parameter :: f298 = 8.2672d-2
$ double precision, parameter :: f299 = 9.7597d-2
$ double precision, parameter :: f300 = 7.6586d+2
$ double precision, parameter :: f301 = 8.2736d-1
$ double precision, parameter :: f302 = 6.3839d+1
$ double precision, parameter :: f303 = 3.3739d0
$ double precision, parameter :: f304 = 6.4470d0
$ double precision, parameter :: f305 = 2.6294d+2
$ double precision, parameter :: f306 = 2.9238d-4
$ double precision, parameter :: f307 = 3.1757d-8
$ double precision, parameter :: f308 = 4.5400d-2
$ double precision, parameter :: f309 = 4.5051d-2
$ double precision, parameter :: f310 = 5.1757d-6
$ double precision, parameter :: f311 = 7.4703d-5
$ double precision, parameter :: f312 = 4.8734d+2
$ double precision, parameter :: f313 = 9.1890d-2
$ double precision, parameter :: f314 = 2.6467d-5
$ double precision, parameter :: f315 = 4.1351d-1

# Electron Collision Reaction
e + CH4 => e + CH4(v24)		! f0 * Bolsig+ CH4 -> CH4(v24)
e + CH4 => e + CH4(v13)		! f1 * Bolsig+ CH4 -> CH4(v13)
e + C2H6 => e + C2H6(v24)		! f2 * Bolsig+ C2H6 -> C2H6(v24)
e + C2H6 => e + C2H6(v13)		! f3 * Bolsig+ C2H6 -> C2H6(v13)
e + C2H4 => e + C2H4(v1)		! f4 * Bolsig+ C2H4 -> C2H4(v1)
e + C2H4 => e + C2H4(v2)		! f5 * Bolsig+ C2H4 -> C2H4(v2)
e + C2H2 => e + C2H2(v5)		! f6 * Bolsig+ C2H2 -> C2H2(v5)
e + C2H2 => e + C2H2(v2)		! f7 * Bolsig+ C2H2 -> C2H2(v2)
e + C2H2 => e + C2H2(v13)		! f8 * Bolsig+ C2H2 -> C2H2(v13)
e + C3H8 => e + C3H8(v1)		! f9 * Bolsig+ C3H8 -> C3H8(v1)
e + C3H8 => e + C3H8(v2)		! f10 * Bolsig+ C3H8 -> C3H8(v2)
e + C3H6 => e + C3H6(v)		! f11 * Bolsig+ C3H6 -> C3H6(v)
e + CH4 => e + CH3 + H		! f12 * Bolsig+ CH4 -> CH3 H
e + CH4(v24) => e + CH3 + H		! f12 * Bolsig+ CH4(v24) -> CH3 H
e + CH4(v13) => e + CH3 + H		! f12 * Bolsig+ CH4(v13) -> CH3 H
e + CH4 => e + CH2 + H2		! f13 * Bolsig+ CH4 -> CH2 H2
e + CH4(v24) => e + CH2 + H2		! f13 * Bolsig+ CH4(v24) -> CH2 H2
e + CH4(v13) => e + CH2 + H2		! f13 * Bolsig+ CH4(v13) -> CH2 H2
e + CH4 => e + CH + H2 + H		! f14 * Bolsig+ CH4 -> CH H2 H
e + CH4(v24) => e + CH + H2 + H		! f14 * Bolsig+ CH4(v24) -> CH H2 H
e + CH4(v13) => e + CH + H2 + H		! f14 * Bolsig+ CH4(v13) -> CH H2 H
e + CH4 => e + C + H2 + H2		! f15 * Bolsig+ CH4 -> C H2 H2
e + CH4(v24) => e + C + H2 + H2		! f15 * Bolsig+ CH4(v24) -> C H2 H2
e + CH4(v13) => e + C + H2 + H2		! f15 * Bolsig+ CH4(v13) -> C H2 H2
e + CH3 => e + CH2 + H		! f16 * Bolsig+ CH3 -> CH2 H
e + CH3 => e + CH + H2		! f17 * Bolsig+ CH3 -> CH H2
e + CH3 => e + C + H2 + H		! f18 * Bolsig+ CH3 -> C H2 H
e + CH2 => e + CH + H		! f19 * Bolsig+ CH2 -> CH H
e + CH2 => e + C + H2		! f20 * Bolsig+ CH2 -> C H2
e + CH2 => e + C + H + H		! f21 * Bolsig+ CH2 -> C H H
e + CH => e + C + H		! f22 * Bolsig+ CH -> C H
e + CH4 => e + e + CH4^+		! f23 * Bolsig+ CH4 -> CH4^+
e + CH4(v24) => e + e + CH4^+		! f23 * Bolsig+ CH4(v24) -> CH4^+
e + CH4(v13) => e + e + CH4^+		! f23 * Bolsig+ CH4(v13) -> CH4^+
e + CH4 => e + e + H + CH3^+		! f24 * Bolsig+ CH4 -> H CH3^+
e + CH4(v24) => e + e + H + CH3^+		! f24 * Bolsig+ CH4(v24) -> H CH3^+
e + CH4(v13) => e + e + H + CH3^+		! f24 * Bolsig+ CH4(v13) -> H CH3^+
e + CH4 => e + e + H2 + CH2^+		! f25 * Bolsig+ CH4 -> H2 CH2^+
e + CH4(v24) => e + e + H2 + CH2^+		! f25 * Bolsig+ CH4(v24) -> H2 CH2^+
e + CH4(v13) => e + e + H2 + CH2^+		! f25 * Bolsig+ CH4(v13) -> H2 CH2^+
e + CH4 => e + e + H2 + H + CH^+		! f26 * Bolsig+ CH4 -> H2 H CH^+
e + CH4(v24) => e + e + H2 + H + CH^+		! f26 * Bolsig+ CH4(v24) -> H2 H CH^+
e + CH4(v13) => e + e + H2 + H + CH^+		! f26 * Bolsig+ CH4(v13) -> H2 H CH^+
e + CH3 => e + e + CH3^+		! f27 * Bolsig+ CH3 -> CH3^+
e + CH3 => e + e + H + CH2^+		! f28 * Bolsig+ CH3 -> H CH2^+
e + CH3 => e + e + H2 + CH^+		! f29 * Bolsig+ CH3 -> H2 CH^+
e + CH2 => e + e + CH2^+		! f30 * Bolsig+ CH2 -> CH2^+
e + CH2 => e + e + H + CH^+		! f31 * Bolsig+ CH2 -> H CH^+
e + CH => e + e + CH^+		! f32 * Bolsig+ CH -> CH^+
e + C2H6 => e + C2H5 + H		! f33 * Bolsig+ C2H6 -> C2H5 H
e + C2H6(v24) => e + C2H5 + H		! f33 * Bolsig+ C2H6(v24) -> C2H5 H
e + C2H6(v13) => e + C2H5 + H		! f33 * Bolsig+ C2H6(v13) -> C2H5 H
e + C2H6 => e + C2H4 + H2		! f34 * Bolsig+ C2H6 -> C2H4 H2
e + C2H6(v24) => e + C2H4 + H2		! f34 * Bolsig+ C2H6(v24) -> C2H4 H2
e + C2H6(v13) => e + C2H4 + H2		! f34 * Bolsig+ C2H6(v13) -> C2H4 H2
e + C2H6 => e + C2H3 + H2 + H		! f35 * Bolsig+ C2H6 -> C2H3 H2 H
e + C2H6(v24) => e + C2H3 + H2 + H		! f35 * Bolsig+ C2H6(v24) -> C2H3 H2 H
e + C2H6(v13) => e + C2H3 + H2 + H		! f35 * Bolsig+ C2H6(v13) -> C2H3 H2 H
e + C2H6 => e + C2H2 + H2 + H2		! f36 * Bolsig+ C2H6 -> C2H2 H2 H2
e + C2H6(v24) => e + C2H2 + H2 + H2		! f36 * Bolsig+ C2H6(v24) -> C2H2 H2 H2
e + C2H6(v13) => e + C2H2 + H2 + H2		! f36 * Bolsig+ C2H6(v13) -> C2H2 H2 H2
e + C2H6 => e + CH4 + CH2		! f37 * Bolsig+ C2H6 -> CH4 CH2
e + C2H6(v24) => e + CH4 + CH2		! f37 * Bolsig+ C2H6(v24) -> CH4 CH2
e + C2H6(v13) => e + CH4 + CH2		! f37 * Bolsig+ C2H6(v13) -> CH4 CH2
e + C2H6 => e + CH3 + CH3		! f38 * Bolsig+ C2H6 -> CH3 CH3
e + C2H6(v24) => e + CH3 + CH3		! f38 * Bolsig+ C2H6(v24) -> CH3 CH3
e + C2H6(v13) => e + CH3 + CH3		! f38 * Bolsig+ C2H6(v13) -> CH3 CH3
e + C2H5 => e + C2H4 + H		! f39 * Bolsig+ C2H5 -> C2H4 H
e + C2H5 => e + C2H3 + H2		! f40 * Bolsig+ C2H5 -> C2H3 H2
e + C2H5 => e + C2H3 + H + H		! f41 * Bolsig+ C2H5 -> C2H3 H H
e + C2H5 => e + C2H2 + H2 + H		! f42 * Bolsig+ C2H5 -> C2H2 H2 H
e + C2H5 => e + CH4 + CH		! f43 * Bolsig+ C2H5 -> CH4 CH
e + C2H5 => e + CH3 + CH2		! f44 * Bolsig+ C2H5 -> CH3 CH2
e + C2H4 => e + C2H3 + H		! f45 * Bolsig+ C2H4 -> C2H3 H
e + C2H4(v1) => e + C2H3 + H		! f45 * Bolsig+ C2H4(v1) -> C2H3 H
e + C2H4(v2) => e + C2H3 + H		! f45 * Bolsig+ C2H4(v2) -> C2H3 H
e + C2H4 => e + C2H2 + H2		! f46 * Bolsig+ C2H4 -> C2H2 H2
e + C2H4(v1) => e + C2H2 + H2		! f46 * Bolsig+ C2H4(v1) -> C2H2 H2
e + C2H4(v2) => e + C2H2 + H2		! f46 * Bolsig+ C2H4(v2) -> C2H2 H2
e + C2H4 => e + C2H2 + H + H		! f47 * Bolsig+ C2H4 -> C2H2 H H
e + C2H4(v1) => e + C2H2 + H + H		! f47 * Bolsig+ C2H4(v1) -> C2H2 H H
e + C2H4(v2) => e + C2H2 + H + H		! f47 * Bolsig+ C2H4(v2) -> C2H2 H H
e + C2H4 => e + CH3 + CH		! f48 * Bolsig+ C2H4 -> CH3 CH
e + C2H4(v1) => e + CH3 + CH		! f48 * Bolsig+ C2H4(v1) -> CH3 CH
e + C2H4(v2) => e + CH3 + CH		! f48 * Bolsig+ C2H4(v2) -> CH3 CH
e + C2H4 => e + CH2 + CH2		! f49 * Bolsig+ C2H4 -> CH2 CH2
e + C2H4(v1) => e + CH2 + CH2		! f49 * Bolsig+ C2H4(v1) -> CH2 CH2
e + C2H4(v2) => e + CH2 + CH2		! f49 * Bolsig+ C2H4(v2) -> CH2 CH2
e + C2H3 => e + C2H2 + H		! f50 * Bolsig+ C2H3 -> C2H2 H
e + C2H3 => e + CH2 + CH		! f51 * Bolsig+ C2H3 -> CH2 CH
e + C2H2 => e + CH + CH		! f52 * Bolsig+ C2H2 -> CH CH
e + C2H2(v5) => e + CH + CH		! f52 * Bolsig+ C2H2(v5) -> CH CH
e + C2H2(v2) => e + CH + CH		! f52 * Bolsig+ C2H2(v2) -> CH CH
e + C2H2(v13) => e + CH + CH		! f52 * Bolsig+ C2H2(v13) -> CH CH
e + C2H6 => e + e + C2H6^+		! f53 * Bolsig+ C2H6 -> C2H6^+
e + C2H6(v24) => e + e + C2H6^+		! f53 * Bolsig+ C2H6(v24) -> C2H6^+
e + C2H6(v13) => e + e + C2H6^+		! f53 * Bolsig+ C2H6(v13) -> C2H6^+
e + C2H6 => e + e + H + C2H5^+		! f54 * Bolsig+ C2H6 -> H C2H5^+
e + C2H6(v24) => e + e + H + C2H5^+		! f54 * Bolsig+ C2H6(v24) -> H C2H5^+
e + C2H6(v13) => e + e + H + C2H5^+		! f54 * Bolsig+ C2H6(v13) -> H C2H5^+
e + C2H6 => e + e + H2 + C2H4^+		! f55 * Bolsig+ C2H6 -> H2 C2H4^+
e + C2H6(v24) => e + e + H2 + C2H4^+		! f55 * Bolsig+ C2H6(v24) -> H2 C2H4^+
e + C2H6(v13) => e + e + H2 + C2H4^+		! f55 * Bolsig+ C2H6(v13) -> H2 C2H4^+
e + C2H6 => e + e + H2 + H + C2H3^+		! f56 * Bolsig+ C2H6 -> H2 H C2H3^+
e + C2H6(v24) => e + e + H2 + H + C2H3^+		! f56 * Bolsig+ C2H6(v24) -> H2 H C2H3^+
e + C2H6(v13) => e + e + H2 + H + C2H3^+		! f56 * Bolsig+ C2H6(v13) -> H2 H C2H3^+
e + C2H6 => e + e + H2 + H2 + C2H2^+		! f57 * Bolsig+ C2H6 -> H2 H2 C2H2^+
e + C2H6(v24) => e + e + H2 + H2 + C2H2^+		! f57 * Bolsig+ C2H6(v24) -> H2 H2 C2H2^+
e + C2H6(v13) => e + e + H2 + H2 + C2H2^+		! f57 * Bolsig+ C2H6(v13) -> H2 H2 C2H2^+
e + C2H6 => e + e + CH3 + CH3^+		! f58 * Bolsig+ C2H6 -> CH3 CH3^+
e + C2H6(v24) => e + e + CH3 + CH3^+		! f58 * Bolsig+ C2H6(v24) -> CH3 CH3^+
e + C2H6(v13) => e + e + CH3 + CH3^+		! f58 * Bolsig+ C2H6(v13) -> CH3 CH3^+
e + C2H6 => e + e + CH4 + CH2^+		! f59 * Bolsig+ C2H6 -> CH4 CH2^+
e + C2H6(v24) => e + e + CH4 + CH2^+		! f59 * Bolsig+ C2H6(v24) -> CH4 CH2^+
e + C2H6(v13) => e + e + CH4 + CH2^+		! f59 * Bolsig+ C2H6(v13) -> CH4 CH2^+
e + C2H5 => e + e + C2H5^+		! f60 * Bolsig+ C2H5 -> C2H5^+
e + C2H5 => e + e + H + C2H4^+		! f61 * Bolsig+ C2H5 -> H C2H4^+
e + C2H5 => e + e + H2 + C2H3^+		! f62 * Bolsig+ C2H5 -> H2 C2H3^+
e + C2H5 => e + e + H2 + H + C2H2^+		! f63 * Bolsig+ C2H5 -> H2 H C2H2^+
e + C2H5 => e + e + CH2 + CH3^+		! f64 * Bolsig+ C2H5 -> CH2 CH3^+
e + C2H5 => e + e + CH3 + CH2^+		! f65 * Bolsig+ C2H5 -> CH3 CH2^+
e + C2H5 => e + e + CH4 + CH^+		! f66 * Bolsig+ C2H5 -> CH4 CH^+
e + C2H4 => e + e + C2H4^+		! f67 * Bolsig+ C2H4 -> C2H4^+
e + C2H4(v1) => e + e + C2H4^+		! f67 * Bolsig+ C2H4(v1) -> C2H4^+
e + C2H4(v2) => e + e + C2H4^+		! f67 * Bolsig+ C2H4(v2) -> C2H4^+
e + C2H4 => e + e + H + C2H3^+		! f68 * Bolsig+ C2H4 -> H C2H3^+
e + C2H4(v1) => e + e + H + C2H3^+		! f68 * Bolsig+ C2H4(v1) -> H C2H3^+
e + C2H4(v2) => e + e + H + C2H3^+		! f68 * Bolsig+ C2H4(v2) -> H C2H3^+
e + C2H4 => e + e + CH + CH3^+		! f69 * Bolsig+ C2H4 -> CH CH3^+
e + C2H4(v1) => e + e + CH + CH3^+		! f69 * Bolsig+ C2H4(v1) -> CH CH3^+
e + C2H4(v2) => e + e + CH + CH3^+		! f69 * Bolsig+ C2H4(v2) -> CH CH3^+
e + C2H4 => e + e + CH2 + CH2^+		! f70 * Bolsig+ C2H4 -> CH2 CH2^+
e + C2H4(v1) => e + e + CH2 + CH2^+		! f70 * Bolsig+ C2H4(v1) -> CH2 CH2^+
e + C2H4(v2) => e + e + CH2 + CH2^+		! f70 * Bolsig+ C2H4(v2) -> CH2 CH2^+
e + C2H4 => e + e + CH3 + CH^+		! f71 * Bolsig+ C2H4 -> CH3 CH^+
e + C2H4(v1) => e + e + CH3 + CH^+		! f71 * Bolsig+ C2H4(v1) -> CH3 CH^+
e + C2H4(v2) => e + e + CH3 + CH^+		! f71 * Bolsig+ C2H4(v2) -> CH3 CH^+
e + C2H3 => e + e + C2H3^+		! f72 * Bolsig+ C2H3 -> C2H3^+
e + C2H3 => e + e + H + C2H2^+		! f73 * Bolsig+ C2H3 -> H C2H2^+
e + C2H3 => e + e + CH + CH2^+		! f74 * Bolsig+ C2H3 -> CH CH2^+
e + C2H3 => e + e + CH2 + CH^+		! f75 * Bolsig+ C2H3 -> CH2 CH^+
e + C2H3 => e + e + C2H2 + H^+		! f76 * Bolsig+ C2H3 -> C2H2 H^+
e + C2H2 => e + e + C2H2^+		! f77 * Bolsig+ C2H2 -> C2H2^+
e + C2H2(v5) => e + e + C2H2^+		! f77 * Bolsig+ C2H2(v5) -> C2H2^+
e + C2H2(v2) => e + e + C2H2^+		! f77 * Bolsig+ C2H2(v2) -> C2H2^+
e + C2H2(v13) => e + e + C2H2^+		! f77 * Bolsig+ C2H2(v13) -> C2H2^+
e + C2H2 => e + e + CH + CH^+		! f78 * Bolsig+ C2H2 -> CH CH^+
e + C2H2(v5) => e + e + CH + CH^+		! f78 * Bolsig+ C2H2(v5) -> CH CH^+
e + C2H2(v2) => e + e + CH + CH^+		! f78 * Bolsig+ C2H2(v2) -> CH CH^+
e + C2H2(v13) => e + e + CH + CH^+		! f78 * Bolsig+ C2H2(v13) -> CH CH^+
e + C3H8 => e + C3H7 + H		! f79 * Bolsig+ C3H8 -> C3H7 H
e + C3H8(v1) => e + C3H7 + H		! f79 * Bolsig+ C3H8(v1) -> C3H7 H
e + C3H8(v2) => e + C3H7 + H		! f79 * Bolsig+ C3H8(v2) -> C3H7 H
e + C3H8 => e + C3H6 + H2		! f80 * Bolsig+ C3H8 -> C3H6 H2
e + C3H8(v1) => e + C3H6 + H2		! f80 * Bolsig+ C3H8(v1) -> C3H6 H2
e + C3H8(v2) => e + C3H6 + H2		! f80 * Bolsig+ C3H8(v2) -> C3H6 H2
e + C3H7 => e + C3H6 + H		! f81 * Bolsig+ C3H7 -> C3H6 H
e + C3H8 => e + e + C3H8^+		! f82 * Bolsig+ C3H8 -> C3H8^+
e + C3H8(v1) => e + e + C3H8^+		! f82 * Bolsig+ C3H8(v1) -> C3H8^+
e + C3H8(v2) => e + e + C3H8^+		! f82 * Bolsig+ C3H8(v2) -> C3H8^+
e + C3H8 => e + e + H + C3H7^+		! f83 * Bolsig+ C3H8 -> H C3H7^+
e + C3H8(v1) => e + e + H + C3H7^+		! f83 * Bolsig+ C3H8(v1) -> H C3H7^+
e + C3H8(v2) => e + e + H + C3H7^+		! f83 * Bolsig+ C3H8(v2) -> H C3H7^+
e + C3H8 => e + e + H2 + C3H6^+		! f84 * Bolsig+ C3H8 -> H2 C3H6^+
e + C3H8(v1) => e + e + H2 + C3H6^+		! f84 * Bolsig+ C3H8(v1) -> H2 C3H6^+
e + C3H8(v2) => e + e + H2 + C3H6^+		! f84 * Bolsig+ C3H8(v2) -> H2 C3H6^+
e + C3H7 => e + e + C3H7^+		! f85 * Bolsig+ C3H7 -> C3H7^+
e + C3H7 => e + e + H + C3H6^+		! f86 * Bolsig+ C3H7 -> H C3H6^+
e + C3H6 => e + e + C3H6^+		! f87 * Bolsig+ C3H6 -> C3H6^+
e + C3H6(v) => e + e + C3H6^+		! f87 * Bolsig+ C3H6(v) -> C3H6^+
e + C3H6 => e + C2H2 + CH4		! f88 * Bolsig+ C3H6 -> C2H2 CH4
e + C3H6(v) => e + C2H2 + CH4		! f88 * Bolsig+ C3H6(v) -> C2H2 CH4
e + C3H6 => e + e + C2H2 + CH4^+		! f89 * Bolsig+ C3H6 -> C2H2 CH4^+
e + C3H6(v) => e + e + C2H2 + CH4^+		! f89 * Bolsig+ C3H6(v) -> C2H2 CH4^+

# Ion Recombination Reaction
e + e + CH^+ => e + CH		! f90 * 1.00d0
e + e + CH2^+ => e + CH2		! f91 * 1.00d0
e + e + CH3^+ => e + CH3		! f92 * 1.00d0
e + e + CH4^+ => e + CH4		! f93 * 1.00d0
e + e + C2H2^+ => e + C2H2		! f94 * 1.00d0
e + e + C2H3^+ => e + C2H3		! f95 * 1.00d0
e + e + C2H4^+ => e + C2H4		! f96 * 1.00d0
e + e + C2H5^+ => e + C2H5		! f97 * 1.00d0
e + e + C2H6^+ => e + C2H6		! f98 * 1.00d0
e + e + C3H6^+ => e + C3H6		! f99 * 1.00d0
e + e + C3H7^+ => e + C3H7		! f100 * 1.00d0
e + e + C3H8^+ => e + C3H8		! f101 * 1.00d0

# Gas Phase Reaction
e + CH4^+ => CH3 + H		! f102 * 1.18d-08 * (300./Tgas)**0.5
e + CH4^+ => CH2 + H + H		! f103 * 2.42d-08 * (300./Tgas)**0.5
e + CH4^+ => CH + H2 + H		! f104 * 1.41d-08 * (300./Tgas)**0.5
e + CH3^+ => CH2 + H		! f105 * 2.25d-08 * (300./Tgas)**0.5
e + CH3^+ => CH + H2		! f106 * 7.88d-09 * (300./Tgas)**0.5
e + CH3^+ => CH + H + H		! f107 * 9.00d-09 * (300./Tgas)**0.5
e + CH3^+ => C + H2 + H		! f108 * 1.69d-08 * (300./Tgas)**0.5
e + CH2^+ => CH + H		! f109 * 1.00d-08 * (300./Tgas)**0.5
e + CH2^+ => C + H2		! f110 * 4.82d-09 * (300./Tgas)**0.5
e + CH2^+ => C + H + H		! f111 * 2.53d-08 * (300./Tgas)**0.5
e + CH^+ => C + H		! f112 * 3.23d-08 * (300./Tgas)**0.42
e + C2H6^+ => C2H5 + H		! f113 * 2.19d-08 * (300./Tgas)**0.71
e + C2H6^+ => C2H4 + H + H		! f114 * 3.36d-08 * (300./Tgas)**0.71
e + C2H5^+ => C2H4 + H		! f115 * 7.70d-09 * (300./Tgas)**0.71
e + C2H5^+ => C2H3 + H + H		! f116 * 1.92d-08 * (300./Tgas)**0.71
e + C2H5^+ => C2H2 + H2 + H		! f117 * 1.60d-08 * (300./Tgas)**0.71
e + C2H5^+ => C2H2 + H + H + H		! f118 * 8.98d-09 * (300./Tgas)**0.71
e + C2H5^+ => CH3 + CH2		! f119 * 9.62d-09 * (300./Tgas)**0.71
e + C2H4^+ => C2H3 + H		! f120 * 8.29d-09 * (300./Tgas)**0.71
e + C2H4^+ => C2H2 + H + H		! f121 * 3.43d-08 * (300./Tgas)**0.71
e + C2H3^+ => C2H2 + H		! f122 * 1.34d-08 * (300./Tgas)**0.71
e + C2H2^+ => CH + CH		! f123 * 4.87d-09 * (300./Tgas)**0.71
e + H2^+ => H + H		! f124 * 3.17d21/(6.022d23 * Te**4.5)
e + H3^+ => H + H2		! f125 * 3.17d21/(6.022d23 * Te**4.5)
H2 + H2^+ => H + H3^+		! f126 * 2.11d-09
C2H6 + CH4^+ => CH4 + H2 + C2H4^+		! f127 * 1.91d-9
C2H6(v24) + CH4^+ => CH4 + H2 + C2H4^+		! f127 * 1.91d-9
C2H6(v13) + CH4^+ => CH4 + H2 + C2H4^+		! f127 * 1.91d-9
C2H4 + CH4^+ => CH3 + C2H5^+		! f128 * 4.23d-10