ELEMENTS
e C H
END

SPECIES
e C CH CH^+ CH2 CH2^+ CH3 CH3^+ CH4 CH4(v13) CH4(v24) CH4^+ C2H2 C2H2(v13) C2H2(v2) C2H2(v5) C2H2^+ C2H3 C2H3^+ C2H4 C2H4(v1) C2H4(v2) C2H4^+ C2H5 C2H5^+
C2H6 C2H6(v13) C2H6(v24) C2H6^+ C3H5 C3H6 C3H6(v) C3H6^+ C3H7 C3H7^+ C3H8 C3H8(v1) C3H8(v2) C3H8^+ C4H9 C4H9H C2H C5H12 H H2 H2^+ H3^+ H^+
END

BOLSIG
CH CH2 CH3 CH4 CH4(v13) CH4(v24) C2H2 C2H2(v13) C2H2(v2) C2H2(v5) C2H3 C2H4 C2H4(v1) C2H4(v2) C2H5 C2H6 C2H6(v13) C2H6(v24) C3H6 C3H6(v) C3H7 C3H8 C3H8(v1) C3H8(v2)
END

REACTIONS
# Gas Constant
$ double precision, parameter :: R = 8.314d-3

# Compensation Parameters
$ double precision, parameter :: f0 = 3.9165d-3
$ double precision, parameter :: f1 = 4.4993d-4
$ double precision, parameter :: f2 = 7.8468d-4
$ double precision, parameter :: f3 = 3.6379d-6
$ double precision, parameter :: f4 = 6.2741d0
$ double precision, parameter :: f5 = 3.5119d-3
$ double precision, parameter :: f6 = 2.4959d-3
$ double precision, parameter :: f7 = 6.8338d-1
$ double precision, parameter :: f8 = 1.9167d-1
$ double precision, parameter :: f9 = 1.1364d-1
$ double precision, parameter :: f10 = 1.2169d-2
$ double precision, parameter :: f11 = 3.8879d-4
$ double precision, parameter :: f12 = 5.3031d0
$ double precision, parameter :: f13 = 7.6656d0
$ double precision, parameter :: f14 = 9.4712d+1
$ double precision, parameter :: f15 = 3.1742d-3
$ double precision, parameter :: f16 = 4.8898d-8
$ double precision, parameter :: f17 = 1.7448d0
$ double precision, parameter :: f18 = 1.2567d+2
$ double precision, parameter :: f19 = 3.5250d+2
$ double precision, parameter :: f20 = 3.1786d-7
$ double precision, parameter :: f21 = 4.5927d-2
$ double precision, parameter :: f22 = 6.9959d0
$ double precision, parameter :: f23 = 2.0860d0
$ double precision, parameter :: f24 = 4.1704d0
$ double precision, parameter :: f25 = 2.2767d+1
$ double precision, parameter :: f26 = 2.3267d-1
$ double precision, parameter :: f27 = 1.6314d-7
$ double precision, parameter :: f28 = 2.7770d-1
$ double precision, parameter :: f29 = 7.1713d-8
$ double precision, parameter :: f30 = 5.8031d-4
$ double precision, parameter :: f31 = 2.5346d0
$ double precision, parameter :: f32 = 2.6291d-6
$ double precision, parameter :: f33 = 1.7902d0
$ double precision, parameter :: f34 = 5.3353d-3
$ double precision, parameter :: f35 = 2.4060d-2
$ double precision, parameter :: f36 = 2.9402d-5
$ double precision, parameter :: f37 = 8.0267d+2
$ double precision, parameter :: f38 = 5.9343d-5
$ double precision, parameter :: f39 = 2.5177d-5
$ double precision, parameter :: f40 = 6.1403d-5
$ double precision, parameter :: f41 = 3.3993d-1
$ double precision, parameter :: f42 = 9.9669d+1
$ double precision, parameter :: f43 = 3.0223d-3
$ double precision, parameter :: f44 = 3.4318d-6
$ double precision, parameter :: f45 = 1.9183d-2
$ double precision, parameter :: f46 = 2.9007d-2
$ double precision, parameter :: f47 = 7.0405d-3
$ double precision, parameter :: f48 = 1.1380d-4
$ double precision, parameter :: f49 = 9.5319d-2
$ double precision, parameter :: f50 = 4.0289d-1
$ double precision, parameter :: f51 = 6.1618d-3
$ double precision, parameter :: f52 = 1.2261d-4
$ double precision, parameter :: f53 = 4.3918d-2
$ double precision, parameter :: f54 = 7.1202d+1
$ double precision, parameter :: f55 = 1.5567d-4
$ double precision, parameter :: f56 = 9.7840d-8
$ double precision, parameter :: f57 = 5.3156d-3
$ double precision, parameter :: f58 = 3.7435d-5
$ double precision, parameter :: f59 = 8.9702d+2
$ double precision, parameter :: f60 = 4.2507d-2
$ double precision, parameter :: f61 = 2.6148d-1
$ double precision, parameter :: f62 = 1.5034d-4
$ double precision, parameter :: f63 = 5.0305d-7
$ double precision, parameter :: f64 = 2.8815d-1
$ double precision, parameter :: f65 = 6.6753d-4
$ double precision, parameter :: f66 = 1.4126d0
$ double precision, parameter :: f67 = 1.3039d+1
$ double precision, parameter :: f68 = 4.2974d-7
$ double precision, parameter :: f69 = 3.4956d-6
$ double precision, parameter :: f70 = 1.2762d-5
$ double precision, parameter :: f71 = 5.5580d+1
$ double precision, parameter :: f72 = 4.0702d-5
$ double precision, parameter :: f73 = 1.1991d-8
$ double precision, parameter :: f74 = 1.1047d-7
$ double precision, parameter :: f75 = 7.0243d-5
$ double precision, parameter :: f76 = 2.2932d-7
$ double precision, parameter :: f77 = 9.9011d-3
$ double precision, parameter :: f78 = 2.7837d-2
$ double precision, parameter :: f79 = 8.9962d-5
$ double precision, parameter :: f80 = 4.4117d-4
$ double precision, parameter :: f81 = 3.6233d+2
$ double precision, parameter :: f82 = 5.7498d+2
$ double precision, parameter :: f83 = 5.0811d-5
$ double precision, parameter :: f84 = 1.1248d+1
$ double precision, parameter :: f85 = 2.9292d-7
$ double precision, parameter :: f86 = 6.0752d-2
$ double precision, parameter :: f87 = 1.9689d+1
$ double precision, parameter :: f88 = 4.9916d+2
$ double precision, parameter :: f89 = 3.0422d-4
$ double precision, parameter :: f90 = 2.3747d-6
$ double precision, parameter :: f91 = 4.5198d-5
$ double precision, parameter :: f92 = 1.2378d+1
$ double precision, parameter :: f93 = 1.1251d-3
$ double precision, parameter :: f94 = 7.7148d-6
$ double precision, parameter :: f95 = 1.3025d-2
$ double precision, parameter :: f96 = 3.0870d-2
$ double precision, parameter :: f97 = 1.2023d-3
$ double precision, parameter :: f98 = 1.8173d+2
$ double precision, parameter :: f99 = 4.9371d-7
$ double precision, parameter :: f100 = 2.7713d-6
$ double precision, parameter :: f101 = 2.6240d-3
$ double precision, parameter :: f102 = 7.1807d-2
$ double precision, parameter :: f103 = 1.7589d+2
$ double precision, parameter :: f104 = 8.0803d-5
$ double precision, parameter :: f105 = 1.9417d-5
$ double precision, parameter :: f106 = 4.6356d-4
$ double precision, parameter :: f107 = 1.1483d-7
$ double precision, parameter :: f108 = 2.0240d-2
$ double precision, parameter :: f109 = 7.2207d-4
$ double precision, parameter :: f110 = 9.7644d-4
$ double precision, parameter :: f111 = 1.1023d+2
$ double precision, parameter :: f112 = 1.8557d+2
$ double precision, parameter :: f113 = 3.7990d-2
$ double precision, parameter :: f114 = 3.8132d-7
$ double precision, parameter :: f115 = 6.5829d-6
$ double precision, parameter :: f116 = 1.8316d-6
$ double precision, parameter :: f117 = 1.0629d-1
$ double precision, parameter :: f118 = 5.2320d-1
$ double precision, parameter :: f119 = 3.8541d-2
$ double precision, parameter :: f120 = 8.9197d+1
$ double precision, parameter :: f121 = 1.1370d-6
$ double precision, parameter :: f122 = 4.5708d-4
$ double precision, parameter :: f123 = 9.1675d-2
$ double precision, parameter :: f124 = 2.0277d0
$ double precision, parameter :: f125 = 5.1954d+1
$ double precision, parameter :: f126 = 1.9426d0
$ double precision, parameter :: f127 = 1.8571d+1
$ double precision, parameter :: f128 = 2.1524d-1
$ double precision, parameter :: f129 = 2.5739d-4
$ double precision, parameter :: f130 = 4.2913d-5
$ double precision, parameter :: f131 = 4.9324d-5
$ double precision, parameter :: f132 = 4.0930d-8
$ double precision, parameter :: f133 = 1.7564d-1
$ double precision, parameter :: f134 = 1.5585d0
$ double precision, parameter :: f135 = 8.6116d+2
$ double precision, parameter :: f136 = 7.5773d0
$ double precision, parameter :: f137 = 3.5287d-8
$ double precision, parameter :: f138 = 2.2467d-7
$ double precision, parameter :: f139 = 1.9852d+2
$ double precision, parameter :: f140 = 8.1666d-1
$ double precision, parameter :: f141 = 1.1428d-4
$ double precision, parameter :: f142 = 3.0554d-3
$ double precision, parameter :: f143 = 2.3869d-5
$ double precision, parameter :: f144 = 4.2009d-8
$ double precision, parameter :: f145 = 5.2550d-5
$ double precision, parameter :: f146 = 6.3324d-6
$ double precision, parameter :: f147 = 1.7991d+1
$ double precision, parameter :: f148 = 1.0963d-8
$ double precision, parameter :: f149 = 9.3057d-2
$ double precision, parameter :: f150 = 3.9111d0
$ double precision, parameter :: f151 = 1.7035d-8
$ double precision, parameter :: f152 = 2.6809d-2
$ double precision, parameter :: f153 = 6.9077d+1
$ double precision, parameter :: f154 = 1.4036d+2
$ double precision, parameter :: f155 = 1.6555d-4
$ double precision, parameter :: f156 = 1.3372d-7
$ double precision, parameter :: f157 = 4.6592d0
$ double precision, parameter :: f158 = 9.8114d+2
$ double precision, parameter :: f159 = 3.5437d0
$ double precision, parameter :: f160 = 6.1532d-8
$ double precision, parameter :: f161 = 1.1192d-4
$ double precision, parameter :: f162 = 8.1243d-1
$ double precision, parameter :: f163 = 1.0982d-6
$ double precision, parameter :: f164 = 3.3084d-8
$ double precision, parameter :: f165 = 2.9597d-4
$ double precision, parameter :: f166 = 3.0435d-2
$ double precision, parameter :: f167 = 5.1912d-3
$ double precision, parameter :: f168 = 1.2148d-4
$ double precision, parameter :: f169 = 2.9561d+2
$ double precision, parameter :: f170 = 2.3631d-7
$ double precision, parameter :: f171 = 1.4308d-2
$ double precision, parameter :: f172 = 1.1639d-5
$ double precision, parameter :: f173 = 6.0483d+2
$ double precision, parameter :: f174 = 2.5948d-6
$ double precision, parameter :: f175 = 7.5065d-2
$ double precision, parameter :: f176 = 9.7223d+2
$ double precision, parameter :: f177 = 1.2564d-5
$ double precision, parameter :: f178 = 1.4870d-3
$ double precision, parameter :: f179 = 4.5086d-7
$ double precision, parameter :: f180 = 1.6609d-2
$ double precision, parameter :: f181 = 3.3024d-5
$ double precision, parameter :: f182 = 2.8212d-2
$ double precision, parameter :: f183 = 3.6737d-1
$ double precision, parameter :: f184 = 7.9843d-3
$ double precision, parameter :: f185 = 9.5014d-6
$ double precision, parameter :: f186 = 3.5578d-2
$ double precision, parameter :: f187 = 2.9284d-4
$ double precision, parameter :: f188 = 1.1605d0
$ double precision, parameter :: f189 = 3.4414d-5
$ double precision, parameter :: f190 = 5.0937d-2
$ double precision, parameter :: f191 = 4.8697d+1
$ double precision, parameter :: f192 = 9.3306d-8
$ double precision, parameter :: f193 = 2.7696d+2
$ double precision, parameter :: f194 = 4.1990d-8
$ double precision, parameter :: f195 = 2.0351d-2
$ double precision, parameter :: f196 = 5.1010d-5
$ double precision, parameter :: f197 = 7.6449d-6
$ double precision, parameter :: f198 = 1.1180d-7
$ double precision, parameter :: f199 = 5.1192d-6
$ double precision, parameter :: f200 = 3.5392d-3
$ double precision, parameter :: f201 = 3.3526d-6
$ double precision, parameter :: f202 = 2.5175d-1
$ double precision, parameter :: f203 = 1.7407d-3
$ double precision, parameter :: f204 = 2.5691d0
$ double precision, parameter :: f205 = 2.5410d-2
$ double precision, parameter :: f206 = 3.9758d-2
$ double precision, parameter :: f207 = 5.1529d+2
$ double precision, parameter :: f208 = 5.2592d-1
$ double precision, parameter :: f209 = 1.7489d-5
$ double precision, parameter :: f210 = 2.1042d0
$ double precision, parameter :: f211 = 2.8262d+1
$ double precision, parameter :: f212 = 6.9117d-7
$ double precision, parameter :: f213 = 7.4135d+1
$ double precision, parameter :: f214 = 7.5700d-6
$ double precision, parameter :: f215 = 2.2609d-1
$ double precision, parameter :: f216 = 1.1615d+2
$ double precision, parameter :: f217 = 1.0513d-3
$ double precision, parameter :: f218 = 1.9638d0
$ double precision, parameter :: f219 = 1.8916d-2
$ double precision, parameter :: f220 = 6.9956d-3
$ double precision, parameter :: f221 = 4.4226d-3
$ double precision, parameter :: f222 = 1.0082d-2
$ double precision, parameter :: f223 = 3.6582d+1
$ double precision, parameter :: f224 = 1.7468d+1
$ double precision, parameter :: f225 = 7.2577d-1
$ double precision, parameter :: f226 = 3.7553d-1
$ double precision, parameter :: f227 = 6.5756d+1
$ double precision, parameter :: f228 = 3.1197d+2
$ double precision, parameter :: f229 = 1.1231d-4
$ double precision, parameter :: f230 = 6.9761d-6
$ double precision, parameter :: f231 = 9.9979d-8
$ double precision, parameter :: f232 = 6.2718d-2
$ double precision, parameter :: f233 = 6.2087d-6
$ double precision, parameter :: f234 = 1.0530d-5
$ double precision, parameter :: f235 = 4.7659d0
$ double precision, parameter :: f236 = 9.3357d+2
$ double precision, parameter :: f237 = 1.0790d-2
$ double precision, parameter :: f238 = 8.1769d-5
$ double precision, parameter :: f239 = 5.9872d-7
$ double precision, parameter :: f240 = 7.1758d-4
$ double precision, parameter :: f241 = 5.7590d-4
$ double precision, parameter :: f242 = 6.3004d0
$ double precision, parameter :: f243 = 6.6902d0
$ double precision, parameter :: f244 = 3.0339d0
$ double precision, parameter :: f245 = 5.5042d-7
$ double precision, parameter :: f246 = 1.1192d+1
$ double precision, parameter :: f247 = 8.9673d-4
$ double precision, parameter :: f248 = 1.3202d0
$ double precision, parameter :: f249 = 3.0199d-1
$ double precision, parameter :: f250 = 7.8912d-3
$ double precision, parameter :: f251 = 2.7717d-8
$ double precision, parameter :: f252 = 2.1113d-8
$ double precision, parameter :: f253 = 1.9044d-2
$ double precision, parameter :: f254 = 2.8830d-8
$ double precision, parameter :: f255 = 3.1267d+2
$ double precision, parameter :: f256 = 6.8434d+1
$ double precision, parameter :: f257 = 3.6503d-5
$ double precision, parameter :: f258 = 5.0978d+1
$ double precision, parameter :: f259 = 2.0564d-4
$ double precision, parameter :: f260 = 9.5293d-3
$ double precision, parameter :: f261 = 1.0777d-7
$ double precision, parameter :: f262 = 4.6638d-2
$ double precision, parameter :: f263 = 1.2619d-3
$ double precision, parameter :: f264 = 1.1423d-2
$ double precision, parameter :: f265 = 2.3558d-1
$ double precision, parameter :: f266 = 9.8299d-5
$ double precision, parameter :: f267 = 1.6544d0
$ double precision, parameter :: f268 = 9.7120d-8
$ double precision, parameter :: f269 = 9.2426d-7
$ double precision, parameter :: f270 = 1.1818d0
$ double precision, parameter :: f271 = 3.2360d-5
$ double precision, parameter :: f272 = 4.6463d-5
$ double precision, parameter :: f273 = 2.5665d+1
$ double precision, parameter :: f274 = 7.3232d-4
$ double precision, parameter :: f275 = 1.0128d-4
$ double precision, parameter :: f276 = 3.9604d0
$ double precision, parameter :: f277 = 4.4844d+2
$ double precision, parameter :: f278 = 8.0068d-6
$ double precision, parameter :: f279 = 1.2520d+1
$ double precision, parameter :: f280 = 4.1503d+1
$ double precision, parameter :: f281 = 5.0770d-7
$ double precision, parameter :: f282 = 3.2464d-5
$ double precision, parameter :: f283 = 1.8208d-5
$ double precision, parameter :: f284 = 2.1812d-6
$ double precision, parameter :: f285 = 1.3152d-4
$ double precision, parameter :: f286 = 2.1506d-4
$ double precision, parameter :: f287 = 8.3248d-4
$ double precision, parameter :: f288 = 2.8140d-7
$ double precision, parameter :: f289 = 1.3807d-5
$ double precision, parameter :: f290 = 2.3407d-3
$ double precision, parameter :: f291 = 1.7711d+2
$ double precision, parameter :: f292 = 7.1129d-8
$ double precision, parameter :: f293 = 3.1260d-5
$ double precision, parameter :: f294 = 9.1347d-3
$ double precision, parameter :: f295 = 2.2883d0
$ double precision, parameter :: f296 = 2.6058d-5
$ double precision, parameter :: f297 = 2.0437d0
$ double precision, parameter :: f298 = 1.5696d-4
$ double precision, parameter :: f299 = 1.9988d0
$ double precision, parameter :: f300 = 1.0602d-5
$ double precision, parameter :: f301 = 7.8092d+1
$ double precision, parameter :: f302 = 4.0165d-7
$ double precision, parameter :: f303 = 7.8172d+1
$ double precision, parameter :: f304 = 1.3425d-2
$ double precision, parameter :: f305 = 4.1581d+1
$ double precision, parameter :: f306 = 1.9355d+2
$ double precision, parameter :: f307 = 1.4086d-7
$ double precision, parameter :: f308 = 9.9486d-7
$ double precision, parameter :: f309 = 7.7565d+2
$ double precision, parameter :: f310 = 3.2503d-6
$ double precision, parameter :: f311 = 5.7728d+2
$ double precision, parameter :: f312 = 3.8307d-4
$ double precision, parameter :: f313 = 6.2050d-7
$ double precision, parameter :: f314 = 1.9789d-6
$ double precision, parameter :: f315 = 4.2164d+2

# Electron Collision Reaction
e + CH4 => e + CH4(v24)		! f0 * Bolsig+ CH4 -> CH4(v24)
e + CH4 => e + CH4(v13)		! f1 * Bolsig+ CH4 -> CH4(v13)
e + C2H6 => e + C2H6(v24)		! f2 * Bolsig+ C2H6 -> C2H6(v24)
e + C2H6 => e + C2H6(v13)		! f3 * Bolsig+ C2H6 -> C2H6(v13)
e + C2H4 => e + C2H4(v1)		! f4 * Bolsig+ C2H4 -> C2H4(v1)
e + C2H4 => e + C2H4(v2)		! f5 * Bolsig+ C2H4 -> C2H4(v2)
e + C2H2 => e + C2H2(v5)		! f6 * Bolsig+ C2H2 -> C2H2(v5)
e + C2H2 => e + C2H2(v2)		! f7 * Bolsig+ C2H2 -> C2H2(v2)
e + C2H2 => e + C2H2(v13)		! f8 * Bolsig+ C2H2 -> C2H2(v13)
e + C3H8 => e + C3H8(v1)		! f9 * Bolsig+ C3H8 -> C3H8(v1)
e + C3H8 => e + C3H8(v2)		! f10 * Bolsig+ C3H8 -> C3H8(v2)
e + C3H6 => e + C3H6(v)		! f11 * Bolsig+ C3H6 -> C3H6(v)
e + CH4 => e + CH3 + H		! f12 * Bolsig+ CH4 -> CH3 H
e + CH4(v24) => e + CH3 + H		! f12 * Bolsig+ CH4(v24) -> CH3 H
e + CH4(v13) => e + CH3 + H		! f12 * Bolsig+ CH4(v13) -> CH3 H
e + CH4 => e + CH2 + H2		! f13 * Bolsig+ CH4 -> CH2 H2
e + CH4(v24) => e + CH2 + H2		! f13 * Bolsig+ CH4(v24) -> CH2 H2
e + CH4(v13) => e + CH2 + H2		! f13 * Bolsig+ CH4(v13) -> CH2 H2
e + CH4 => e + CH + H2 + H		! f14 * Bolsig+ CH4 -> CH H2 H
e + CH4(v24) => e + CH + H2 + H		! f14 * Bolsig+ CH4(v24) -> CH H2 H
e + CH4(v13) => e + CH + H2 + H		! f14 * Bolsig+ CH4(v13) -> CH H2 H
e + CH4 => e + C + H2 + H2		! f15 * Bolsig+ CH4 -> C H2 H2
e + CH4(v24) => e + C + H2 + H2		! f15 * Bolsig+ CH4(v24) -> C H2 H2
e + CH4(v13) => e + C + H2 + H2		! f15 * Bolsig+ CH4(v13) -> C H2 H2
e + CH3 => e + CH2 + H		! f16 * Bolsig+ CH3 -> CH2 H
e + CH3 => e + CH + H2		! f17 * Bolsig+ CH3 -> CH H2
e + CH3 => e + C + H2 + H		! f18 * Bolsig+ CH3 -> C H2 H
e + CH2 => e + CH + H		! f19 * Bolsig+ CH2 -> CH H
e + CH2 => e + C + H2		! f20 * Bolsig+ CH2 -> C H2
e + CH2 => e + C + H + H		! f21 * Bolsig+ CH2 -> C H H
e + CH => e + C + H		! f22 * Bolsig+ CH -> C H
e + CH4 => e + e + CH4^+		! f23 * Bolsig+ CH4 -> CH4^+
e + CH4(v24) => e + e + CH4^+		! f23 * Bolsig+ CH4(v24) -> CH4^+
e + CH4(v13) => e + e + CH4^+		! f23 * Bolsig+ CH4(v13) -> CH4^+
e + CH4 => e + e + H + CH3^+		! f24 * Bolsig+ CH4 -> H CH3^+
e + CH4(v24) => e + e + H + CH3^+		! f24 * Bolsig+ CH4(v24) -> H CH3^+
e + CH4(v13) => e + e + H + CH3^+		! f24 * Bolsig+ CH4(v13) -> H CH3^+
e + CH4 => e + e + H2 + CH2^+		! f25 * Bolsig+ CH4 -> H2 CH2^+
e + CH4(v24) => e + e + H2 + CH2^+		! f25 * Bolsig+ CH4(v24) -> H2 CH2^+
e + CH4(v13) => e + e + H2 + CH2^+		! f25 * Bolsig+ CH4(v13) -> H2 CH2^+
e + CH4 => e + e + H2 + H + CH^+		! f26 * Bolsig+ CH4 -> H2 H CH^+
e + CH4(v24) => e + e + H2 + H + CH^+		! f26 * Bolsig+ CH4(v24) -> H2 H CH^+
e + CH4(v13) => e + e + H2 + H + CH^+		! f26 * Bolsig+ CH4(v13) -> H2 H CH^+
e + CH3 => e + e + CH3^+		! f27 * Bolsig+ CH3 -> CH3^+
e + CH3 => e + e + H + CH2^+		! f28 * Bolsig+ CH3 -> H CH2^+
e + CH3 => e + e + H2 + CH^+		! f29 * Bolsig+ CH3 -> H2 CH^+
e + CH2 => e + e + CH2^+		! f30 * Bolsig+ CH2 -> CH2^+
e + CH2 => e + e + H + CH^+		! f31 * Bolsig+ CH2 -> H CH^+
e + CH => e + e + CH^+		! f32 * Bolsig+ CH -> CH^+
e + C2H6 => e + C2H5 + H		! f33 * Bolsig+ C2H6 -> C2H5 H
e + C2H6(v24) => e + C2H5 + H		! f33 * Bolsig+ C2H6(v24) -> C2H5 H
e + C2H6(v13) => e + C2H5 + H		! f33 * Bolsig+ C2H6(v13) -> C2H5 H
e + C2H6 => e + C2H4 + H2		! f34 * Bolsig+ C2H6 -> C2H4 H2
e + C2H6(v24) => e + C2H4 + H2		! f34 * Bolsig+ C2H6(v24) -> C2H4 H2
e + C2H6(v13) => e + C2H4 + H2		! f34 * Bolsig+ C2H6(v13) -> C2H4 H2
e + C2H6 => e + C2H3 + H2 + H		! f35 * Bolsig+ C2H6 -> C2H3 H2 H
e + C2H6(v24) => e + C2H3 + H2 + H		! f35 * Bolsig+ C2H6(v24) -> C2H3 H2 H
e + C2H6(v13) => e + C2H3 + H2 + H		! f35 * Bolsig+ C2H6(v13) -> C2H3 H2 H
e + C2H6 => e + C2H2 + H2 + H2		! f36 * Bolsig+ C2H6 -> C2H2 H2 H2
e + C2H6(v24) => e + C2H2 + H2 + H2		! f36 * Bolsig+ C2H6(v24) -> C2H2 H2 H2
e + C2H6(v13) => e + C2H2 + H2 + H2		! f36 * Bolsig+ C2H6(v13) -> C2H2 H2 H2
e + C2H6 => e + CH4 + CH2		! f37 * Bolsig+ C2H6 -> CH4 CH2
e + C2H6(v24) => e + CH4 + CH2		! f37 * Bolsig+ C2H6(v24) -> CH4 CH2
e + C2H6(v13) => e + CH4 + CH2		! f37 * Bolsig+ C2H6(v13) -> CH4 CH2
e + C2H6 => e + CH3 + CH3		! f38 * Bolsig+ C2H6 -> CH3 CH3
e + C2H6(v24) => e + CH3 + CH3		! f38 * Bolsig+ C2H6(v24) -> CH3 CH3
e + C2H6(v13) => e + CH3 + CH3		! f38 * Bolsig+ C2H6(v13) -> CH3 CH3
e + C2H5 => e + C2H4 + H		! f39 * Bolsig+ C2H5 -> C2H4 H
e + C2H5 => e + C2H3 + H2		! f40 * Bolsig+ C2H5 -> C2H3 H2
e + C2H5 => e + C2H3 + H + H		! f41 * Bolsig+ C2H5 -> C2H3 H H
e + C2H5 => e + C2H2 + H2 + H		! f42 * Bolsig+ C2H5 -> C2H2 H2 H
e + C2H5 => e + CH4 + CH		! f43 * Bolsig+ C2H5 -> CH4 CH
e + C2H5 => e + CH3 + CH2		! f44 * Bolsig+ C2H5 -> CH3 CH2
e + C2H4 => e + C2H3 + H		! f45 * Bolsig+ C2H4 -> C2H3 H
e + C2H4(v1) => e + C2H3 + H		! f45 * Bolsig+ C2H4(v1) -> C2H3 H
e + C2H4(v2) => e + C2H3 + H		! f45 * Bolsig+ C2H4(v2) -> C2H3 H
e + C2H4 => e + C2H2 + H2		! f46 * Bolsig+ C2H4 -> C2H2 H2
e + C2H4(v1) => e + C2H2 + H2		! f46 * Bolsig+ C2H4(v1) -> C2H2 H2
e + C2H4(v2) => e + C2H2 + H2		! f46 * Bolsig+ C2H4(v2) -> C2H2 H2
e + C2H4 => e + C2H2 + H + H		! f47 * Bolsig+ C2H4 -> C2H2 H H
e + C2H4(v1) => e + C2H2 + H + H		! f47 * Bolsig+ C2H4(v1) -> C2H2 H H
e + C2H4(v2) => e + C2H2 + H + H		! f47 * Bolsig+ C2H4(v2) -> C2H2 H H
e + C2H4 => e + CH3 + CH		! f48 * Bolsig+ C2H4 -> CH3 CH
e + C2H4(v1) => e + CH3 + CH		! f48 * Bolsig+ C2H4(v1) -> CH3 CH
e + C2H4(v2) => e + CH3 + CH		! f48 * Bolsig+ C2H4(v2) -> CH3 CH
e + C2H4 => e + CH2 + CH2		! f49 * Bolsig+ C2H4 -> CH2 CH2
e + C2H4(v1) => e + CH2 + CH2		! f49 * Bolsig+ C2H4(v1) -> CH2 CH2
e + C2H4(v2) => e + CH2 + CH2		! f49 * Bolsig+ C2H4(v2) -> CH2 CH2
e + C2H3 => e + C2H2 + H		! f50 * Bolsig+ C2H3 -> C2H2 H
e + C2H3 => e + CH2 + CH		! f51 * Bolsig+ C2H3 -> CH2 CH
e + C2H2 => e + CH + CH		! f52 * Bolsig+ C2H2 -> CH CH
e + C2H2(v5) => e + CH + CH		! f52 * Bolsig+ C2H2(v5) -> CH CH
e + C2H2(v2) => e + CH + CH		! f52 * Bolsig+ C2H2(v2) -> CH CH
e + C2H2(v13) => e + CH + CH		! f52 * Bolsig+ C2H2(v13) -> CH CH
e + C2H6 => e + e + C2H6^+		! f53 * Bolsig+ C2H6 -> C2H6^+
e + C2H6(v24) => e + e + C2H6^+		! f53 * Bolsig+ C2H6(v24) -> C2H6^+
e + C2H6(v13) => e + e + C2H6^+		! f53 * Bolsig+ C2H6(v13) -> C2H6^+
e + C2H6 => e + e + H + C2H5^+		! f54 * Bolsig+ C2H6 -> H C2H5^+
e + C2H6(v24) => e + e + H + C2H5^+		! f54 * Bolsig+ C2H6(v24) -> H C2H5^+
e + C2H6(v13) => e + e + H + C2H5^+		! f54 * Bolsig+ C2H6(v13) -> H C2H5^+
e + C2H6 => e + e + H2 + C2H4^+		! f55 * Bolsig+ C2H6 -> H2 C2H4^+
e + C2H6(v24) => e + e + H2 + C2H4^+		! f55 * Bolsig+ C2H6(v24) -> H2 C2H4^+
e + C2H6(v13) => e + e + H2 + C2H4^+		! f55 * Bolsig+ C2H6(v13) -> H2 C2H4^+
e + C2H6 => e + e + H2 + H + C2H3^+		! f56 * Bolsig+ C2H6 -> H2 H C2H3^+
e + C2H6(v24) => e + e + H2 + H + C2H3^+		! f56 * Bolsig+ C2H6(v24) -> H2 H C2H3^+
e + C2H6(v13) => e + e + H2 + H + C2H3^+		! f56 * Bolsig+ C2H6(v13) -> H2 H C2H3^+
e + C2H6 => e + e + H2 + H2 + C2H2^+		! f57 * Bolsig+ C2H6 -> H2 H2 C2H2^+
e + C2H6(v24) => e + e + H2 + H2 + C2H2^+		! f57 * Bolsig+ C2H6(v24) -> H2 H2 C2H2^+
e + C2H6(v13) => e + e + H2 + H2 + C2H2^+		! f57 * Bolsig+ C2H6(v13) -> H2 H2 C2H2^+
e + C2H6 => e + e + CH3 + CH3^+		! f58 * Bolsig+ C2H6 -> CH3 CH3^+
e + C2H6(v24) => e + e + CH3 + CH3^+		! f58 * Bolsig+ C2H6(v24) -> CH3 CH3^+
e + C2H6(v13) => e + e + CH3 + CH3^+		! f58 * Bolsig+ C2H6(v13) -> CH3 CH3^+
e + C2H6 => e + e + CH4 + CH2^+		! f59 * Bolsig+ C2H6 -> CH4 CH2^+
e + C2H6(v24) => e + e + CH4 + CH2^+		! f59 * Bolsig+ C2H6(v24) -> CH4 CH2^+
e + C2H6(v13) => e + e + CH4 + CH2^+		! f59 * Bolsig+ C2H6(v13) -> CH4 CH2^+
e + C2H5 => e + e + C2H5^+		! f60 * Bolsig+ C2H5 -> C2H5^+
e + C2H5 => e + e + H + C2H4^+		! f61 * Bolsig+ C2H5 -> H C2H4^+
e + C2H5 => e + e + H2 + C2H3^+		! f62 * Bolsig+ C2H5 -> H2 C2H3^+
e + C2H5 => e + e + H2 + H + C2H2^+		! f63 * Bolsig+ C2H5 -> H2 H C2H2^+
e + C2H5 => e + e + CH2 + CH3^+		! f64 * Bolsig+ C2H5 -> CH2 CH3^+
e + C2H5 => e + e + CH3 + CH2^+		! f65 * Bolsig+ C2H5 -> CH3 CH2^+
e + C2H5 => e + e + CH4 + CH^+		! f66 * Bolsig+ C2H5 -> CH4 CH^+
e + C2H4 => e + e + C2H4^+		! f67 * Bolsig+ C2H4 -> C2H4^+
e + C2H4(v1) => e + e + C2H4^+		! f67 * Bolsig+ C2H4(v1) -> C2H4^+
e + C2H4(v2) => e + e + C2H4^+		! f67 * Bolsig+ C2H4(v2) -> C2H4^+
e + C2H4 => e + e + H + C2H3^+		! f68 * Bolsig+ C2H4 -> H C2H3^+
e + C2H4(v1) => e + e + H + C2H3^+		! f68 * Bolsig+ C2H4(v1) -> H C2H3^+
e + C2H4(v2) => e + e + H + C2H3^+		! f68 * Bolsig+ C2H4(v2) -> H C2H3^+
e + C2H4 => e + e + CH + CH3^+		! f69 * Bolsig+ C2H4 -> CH CH3^+
e + C2H4(v1) => e + e + CH + CH3^+		! f69 * Bolsig+ C2H4(v1) -> CH CH3^+
e + C2H4(v2) => e + e + CH + CH3^+		! f69 * Bolsig+ C2H4(v2) -> CH CH3^+
e + C2H4 => e + e + CH2 + CH2^+		! f70 * Bolsig+ C2H4 -> CH2 CH2^+
e + C2H4(v1) => e + e + CH2 + CH2^+		! f70 * Bolsig+ C2H4(v1) -> CH2 CH2^+
e + C2H4(v2) => e + e + CH2 + CH2^+		! f70 * Bolsig+ C2H4(v2) -> CH2 CH2^+
e + C2H4 => e + e + CH3 + CH^+		! f71 * Bolsig+ C2H4 -> CH3 CH^+
e + C2H4(v1) => e + e + CH3 + CH^+		! f71 * Bolsig+ C2H4(v1) -> CH3 CH^+
e + C2H4(v2) => e + e + CH3 + CH^+		! f71 * Bolsig+ C2H4(v2) -> CH3 CH^+
e + C2H3 => e + e + C2H3^+		! f72 * Bolsig+ C2H3 -> C2H3^+
e + C2H3 => e + e + H + C2H2^+		! f73 * Bolsig+ C2H3 -> H C2H2^+
e + C2H3 => e + e + CH + CH2^+		! f74 * Bolsig+ C2H3 -> CH CH2^+
e + C2H3 => e + e + CH2 + CH^+		! f75 * Bolsig+ C2H3 -> CH2 CH^+
e + C2H3 => e + e + C2H2 + H^+		! f76 * Bolsig+ C2H3 -> C2H2 H^+
e + C2H2 => e + e + C2H2^+		! f77 * Bolsig+ C2H2 -> C2H2^+
e + C2H2(v5) => e + e + C2H2^+		! f77 * Bolsig+ C2H2(v5) -> C2H2^+
e + C2H2(v2) => e + e + C2H2^+		! f77 * Bolsig+ C2H2(v2) -> C2H2^+
e + C2H2(v13) => e + e + C2H2^+		! f77 * Bolsig+ C2H2(v13) -> C2H2^+
e + C2H2 => e + e + CH + CH^+		! f78 * Bolsig+ C2H2 -> CH CH^+
e + C2H2(v5) => e + e + CH + CH^+		! f78 * Bolsig+ C2H2(v5) -> CH CH^+
e + C2H2(v2) => e + e + CH + CH^+		! f78 * Bolsig+ C2H2(v2) -> CH CH^+
e + C2H2(v13) => e + e + CH + CH^+		! f78 * Bolsig+ C2H2(v13) -> CH CH^+
e + C3H8 => e + C3H7 + H		! f79 * Bolsig+ C3H8 -> C3H7 H
e + C3H8(v1) => e + C3H7 + H		! f79 * Bolsig+ C3H8(v1) -> C3H7 H
e + C3H8(v2) => e + C3H7 + H		! f79 * Bolsig+ C3H8(v2) -> C3H7 H
e + C3H8 => e + C3H6 + H2		! f80 * Bolsig+ C3H8 -> C3H6 H2
e + C3H8(v1) => e + C3H6 + H2		! f80 * Bolsig+ C3H8(v1) -> C3H6 H2
e + C3H8(v2) => e + C3H6 + H2		! f80 * Bolsig+ C3H8(v2) -> C3H6 H2
e + C3H7 => e + C3H6 + H		! f81 * Bolsig+ C3H7 -> C3H6 H
e + C3H8 => e + e + C3H8^+		! f82 * Bolsig+ C3H8 -> C3H8^+
e + C3H8(v1) => e + e + C3H8^+		! f82 * Bolsig+ C3H8(v1) -> C3H8^+
e + C3H8(v2) => e + e + C3H8^+		! f82 * Bolsig+ C3H8(v2) -> C3H8^+
e + C3H8 => e + e + H + C3H7^+		! f83 * Bolsig+ C3H8 -> H C3H7^+
e + C3H8(v1) => e + e + H + C3H7^+		! f83 * Bolsig+ C3H8(v1) -> H C3H7^+
e + C3H8(v2) => e + e + H + C3H7^+		! f83 * Bolsig+ C3H8(v2) -> H C3H7^+
e + C3H8 => e + e + H2 + C3H6^+		! f84 * Bolsig+ C3H8 -> H2 C3H6^+
e + C3H8(v1) => e + e + H2 + C3H6^+		! f84 * Bolsig+ C3H8(v1) -> H2 C3H6^+
e + C3H8(v2) => e + e + H2 + C3H6^+		! f84 * Bolsig+ C3H8(v2) -> H2 C3H6^+
e + C3H7 => e + e + C3H7^+		! f85 * Bolsig+ C3H7 -> C3H7^+
e + C3H7 => e + e + H + C3H6^+		! f86 * Bolsig+ C3H7 -> H C3H6^+
e + C3H6 => e + e + C3H6^+		! f87 * Bolsig+ C3H6 -> C3H6^+
e + C3H6(v) => e + e + C3H6^+		! f87 * Bolsig+ C3H6(v) -> C3H6^+
e + C3H6 => e + C2H2 + CH4		! f88 * Bolsig+ C3H6 -> C2H2 CH4
e + C3H6(v) => e + C2H2 + CH4		! f88 * Bolsig+ C3H6(v) -> C2H2 CH4
e + C3H6 => e + e + C2H2 + CH4^+		! f89 * Bolsig+ C3H6 -> C2H2 CH4^+
e + C3H6(v) => e + e + C2H2 + CH4^+		! f89 * Bolsig+ C3H6(v) -> C2H2 CH4^+

# Ion Recombination Reaction
e + e + CH^+ => e + CH		! f90 * 1.00d0
e + e + CH2^+ => e + CH2		! f91 * 1.00d0
e + e + CH3^+ => e + CH3		! f92 * 1.00d0
e + e + CH4^+ => e + CH4		! f93 * 1.00d0
e + e + C2H2^+ => e + C2H2		! f94 * 1.00d0
e + e + C2H3^+ => e + C2H3		! f95 * 1.00d0
e + e + C2H4^+ => e + C2H4		! f96 * 1.00d0
e + e + C2H5^+ => e + C2H5		! f97 * 1.00d0
e + e + C2H6^+ => e + C2H6		! f98 * 1.00d0
e + e + C3H6^+ => e + C3H6		! f99 * 1.00d0
e + e + C3H7^+ => e + C3H7		! f100 * 1.00d0
e + e + C3H8^+ => e + C3H8		! f101 * 1.00d0

# Gas Phase Reaction
e + CH4^+ => CH3 + H		! f102 * 1.18d-08 * (300./Tgas)**0.5
e + CH4^+ => CH2 + H + H		! f103 * 2.42d-08 * (300./Tgas)**0.5
e + CH4^+ => CH + H2 + H		! f104 * 1.41d-08 * (300./Tgas)**0.5
e + CH3^+ => CH2 + H		! f105 * 2.25d-08 * (300./Tgas)**0.5
e + CH3^+ => CH + H2		! f106 * 7.88d-09 * (300./Tgas)**0.5
e + CH3^+ => CH + H + H		! f107 * 9.00d-09 * (300./Tgas)**0.5
e + CH3^+ => C + H2 + H		! f108 * 1.69d-08 * (300./Tgas)**0.5
e + CH2^+ => CH + H		! f109 * 1.00d-08 * (300./Tgas)**0.5
e + CH2^+ => C + H2		! f110 * 4.82d-09 * (300./Tgas)**0.5
e + CH2^+ => C + H + H		! f111 * 2.53d-08 * (300./Tgas)**0.5
e + CH^+ => C + H		! f112 * 3.23d-08 * (300./Tgas)**0.42
e + C2H6^+ => C2H5 + H		! f113 * 2.19d-08 * (300./Tgas)**0.71
e + C2H6^+ => C2H4 + H + H		! f114 * 3.36d-08 * (300./Tgas)**0.71
e + C2H5^+ => C2H4 + H		! f115 * 7.70d-09 * (300./Tgas)**0.71
e + C2H5^+ => C2H3 + H + H		! f116 * 1.92d-08 * (300./Tgas)**0.71
e + C2H5^+ => C2H2 + H2 + H		! f117 * 1.60d-08 * (300./Tgas)**0.71
e + C2H5^+ => C2H2 + H + H + H		! f118 * 8.98d-09 * (300./Tgas)**0.71
e + C2H5^+ => CH3 + CH2		! f119 * 9.62d-09 * (300./Tgas)**0.71
e + C2H4^+ => C2H3 + H		! f120 * 8.29d-09 * (300./Tgas)**0.71
e + C2H4^+ => C2H2 + H + H		! f121 * 3.43d-08 * (300./Tgas)**0.71
e + C2H3^+ => C2H2 + H		! f122 * 1.34d-08 * (300./Tgas)**0.71
e + C2H2^+ => CH + CH		! f123 * 4.87d-09 * (300./Tgas)**0.71
e + H2^+ => H + H		! f124 * 3.17d21/(6.022d23 * Te**4.5)
e + H3^+ => H + H2		! f125 * 3.17d21/(6.022d23 * Te**4.5)
H2 + H2^+ => H + H3^+		! f126 * 2.11d-09
C2H6 + CH4^+ => CH4 + H2 + C2H4^+		! f127 * 1.91d-9
C2H6(v24) + CH4^+ => CH4 + H2 + C2H4^+		! f127 * 1.91d-9
C2H6(v13) + CH4^+ => CH4 + H2 + C2H4^+		! f127 * 1.91d-9
C2H4 + CH4^+ => CH3 + C2H5^+		! f128 * 4.23d-10