ELEMENTS
e C H
END

SPECIES
e C CH CH^+ CH2 CH2^+ CH3 CH3^+ CH4 CH4(v13) CH4(v24) CH4^+ C2H2 C2H2(v13) C2H2(v2) C2H2(v5) C2H2^+ C2H3 C2H3^+ C2H4 C2H4(v1) C2H4(v2) C2H4^+ C2H5 C2H5^+
C2H6 C2H6(v13) C2H6(v24) C2H6^+ C3H5 C3H6 C3H6(v) C3H6^+ C3H7 C3H7^+ C3H8 C3H8(v1) C3H8(v2) C3H8^+ C4H9 C4H9H C2H C5H12 H H2 H2^+ H3^+ H^+
END

BOLSIG
CH CH2 CH3 CH4 CH4(v13) CH4(v24) C2H2 C2H2(v13) C2H2(v2) C2H2(v5) C2H3 C2H4 C2H4(v1) C2H4(v2) C2H5 C2H6 C2H6(v13) C2H6(v24) C3H6 C3H6(v) C3H7 C3H8 C3H8(v1) C3H8(v2)
END

REACTIONS
# Gas Constant
$ double precision, parameter :: R = 8.314d-3

# Compensation Parameters
$ double precision, parameter :: f0 = 1.0000d0
$ double precision, parameter :: f1 = 1.0000d0
$ double precision, parameter :: f2 = 1.0000d0
$ double precision, parameter :: f3 = 1.0000d0
$ double precision, parameter :: f4 = 1.0000d0
$ double precision, parameter :: f5 = 1.0000d0
$ double precision, parameter :: f6 = 1.0000d0
$ double precision, parameter :: f7 = 1.0000d0
$ double precision, parameter :: f8 = 1.0000d0
$ double precision, parameter :: f9 = 1.0000d0
$ double precision, parameter :: f10 = 1.0000d0
$ double precision, parameter :: f11 = 1.0000d0
$ double precision, parameter :: f12 = 7.8089d-1
$ double precision, parameter :: f13 = 7.3336d-1
$ double precision, parameter :: f14 = 3.8222d+1
$ double precision, parameter :: f15 = 1.0000d-21
$ double precision, parameter :: f16 = 1.0000d-21
$ double precision, parameter :: f17 = 1.0000d-21
$ double precision, parameter :: f18 = 1.0000d-21
$ double precision, parameter :: f19 = 1.0000d-21
$ double precision, parameter :: f20 = 1.0000d-21
$ double precision, parameter :: f21 = 1.0000d-21
$ double precision, parameter :: f22 = 9.5569d+9
$ double precision, parameter :: f23 = 1.0000d-21
$ double precision, parameter :: f24 = 6.2248d-1
$ double precision, parameter :: f25 = 1.0000d-21
$ double precision, parameter :: f26 = 1.0000d-21
$ double precision, parameter :: f27 = 1.0000d-21
$ double precision, parameter :: f28 = 1.0000d-21
$ double precision, parameter :: f29 = 1.0000d-21
$ double precision, parameter :: f30 = 1.0000d-21
$ double precision, parameter :: f31 = 1.0000d-21
$ double precision, parameter :: f32 = 1.0000d-21
$ double precision, parameter :: f33 = 1.0000d-21
$ double precision, parameter :: f34 = 2.0798d+1
$ double precision, parameter :: f35 = 1.0000d-21
$ double precision, parameter :: f36 = 1.0000d-21
$ double precision, parameter :: f37 = 1.0000d-21
$ double precision, parameter :: f38 = 1.0000d-21
$ double precision, parameter :: f39 = 1.0000d-21
$ double precision, parameter :: f40 = 1.0000d-21
$ double precision, parameter :: f41 = 1.0000d-21
$ double precision, parameter :: f42 = 1.0000d-21
$ double precision, parameter :: f43 = 1.0000d-21
$ double precision, parameter :: f44 = 1.0000d-21
$ double precision, parameter :: f45 = 1.0000d-21
$ double precision, parameter :: f46 = 7.5857d+1
$ double precision, parameter :: f47 = 1.0000d-21
$ double precision, parameter :: f48 = 1.0000d-21
$ double precision, parameter :: f49 = 1.0000d-21
$ double precision, parameter :: f50 = 1.0000d-21
$ double precision, parameter :: f51 = 1.0000d-21
$ double precision, parameter :: f52 = 1.0000d-21
$ double precision, parameter :: f53 = 1.0000d-21
$ double precision, parameter :: f54 = 1.0000d-21
$ double precision, parameter :: f55 = 1.0000d-21
$ double precision, parameter :: f56 = 1.0000d-21
$ double precision, parameter :: f57 = 1.0000d-21
$ double precision, parameter :: f58 = 1.0000d-21
$ double precision, parameter :: f59 = 1.0000d-21
$ double precision, parameter :: f60 = 1.0000d-21
$ double precision, parameter :: f61 = 1.0000d-21
$ double precision, parameter :: f62 = 1.0000d-21
$ double precision, parameter :: f63 = 1.0000d-21
$ double precision, parameter :: f64 = 1.0000d-21
$ double precision, parameter :: f65 = 1.0000d-21
$ double precision, parameter :: f66 = 1.0000d-21
$ double precision, parameter :: f67 = 1.0000d-21
$ double precision, parameter :: f68 = 1.0000d-21
$ double precision, parameter :: f69 = 1.0000d-21
$ double precision, parameter :: f70 = 1.0000d-21
$ double precision, parameter :: f71 = 1.0000d-21
$ double precision, parameter :: f72 = 1.0000d-21
$ double precision, parameter :: f73 = 1.0000d-21
$ double precision, parameter :: f74 = 1.0000d-21
$ double precision, parameter :: f75 = 1.0000d-21
$ double precision, parameter :: f76 = 1.0000d-21
$ double precision, parameter :: f77 = 1.0000d-21
$ double precision, parameter :: f78 = 1.0000d-21
$ double precision, parameter :: f79 = 1.0000d-21
$ double precision, parameter :: f80 = 1.0000d-21
$ double precision, parameter :: f81 = 1.0000d-21
$ double precision, parameter :: f82 = 1.0000d-21
$ double precision, parameter :: f83 = 1.0000d-21
$ double precision, parameter :: f84 = 1.0000d-21
$ double precision, parameter :: f85 = 1.0000d-21
$ double precision, parameter :: f86 = 1.0000d-21
$ double precision, parameter :: f87 = 1.0000d-21
$ double precision, parameter :: f88 = 1.0000d-21
$ double precision, parameter :: f89 = 1.0000d-21
$ double precision, parameter :: f90 = 1.0000d0
$ double precision, parameter :: f91 = 1.0000d0
$ double precision, parameter :: f92 = 1.0000d0
$ double precision, parameter :: f93 = 1.0000d0
$ double precision, parameter :: f94 = 1.0000d0
$ double precision, parameter :: f95 = 1.0000d0
$ double precision, parameter :: f96 = 1.0000d0
$ double precision, parameter :: f97 = 1.0000d0
$ double precision, parameter :: f98 = 1.0000d0
$ double precision, parameter :: f99 = 1.0000d0
$ double precision, parameter :: f100 = 1.0000d0
$ double precision, parameter :: f101 = 1.0000d0
$ double precision, parameter :: f102 = 1.0000d-21
$ double precision, parameter :: f103 = 1.0000d-21
$ double precision, parameter :: f104 = 1.0000d-21
$ double precision, parameter :: f105 = 1.0000d-21
$ double precision, parameter :: f106 = 1.0000d-21
$ double precision, parameter :: f107 = 1.0000d-21
$ double precision, parameter :: f108 = 1.0000d-21
$ double precision, parameter :: f109 = 1.0000d-21
$ double precision, parameter :: f110 = 1.0000d-21
$ double precision, parameter :: f111 = 1.0000d-21
$ double precision, parameter :: f112 = 1.0000d-21
$ double precision, parameter :: f113 = 1.0000d-21
$ double precision, parameter :: f114 = 1.0000d-21
$ double precision, parameter :: f115 = 1.0000d-21
$ double precision, parameter :: f116 = 2.2232d+12
$ double precision, parameter :: f117 = 1.0000d-21
$ double precision, parameter :: f118 = 1.0000d-21
$ double precision, parameter :: f119 = 1.0000d-21
$ double precision, parameter :: f120 = 1.0000d-21
$ double precision, parameter :: f121 = 1.0000d-21
$ double precision, parameter :: f122 = 1.0000d-21
$ double precision, parameter :: f123 = 1.0000d-21
$ double precision, parameter :: f124 = 1.0000d-21
$ double precision, parameter :: f125 = 1.0000d-21
$ double precision, parameter :: f126 = 1.0000d-21
$ double precision, parameter :: f127 = 1.0000d-21
$ double precision, parameter :: f128 = 1.0000d-21
$ double precision, parameter :: f129 = 1.0000d-21
$ double precision, parameter :: f130 = 1.0000d-21
$ double precision, parameter :: f131 = 1.0000d-21
$ double precision, parameter :: f132 = 1.0000d-21
$ double precision, parameter :: f133 = 1.0000d-21
$ double precision, parameter :: f134 = 2.8305d0
$ double precision, parameter :: f135 = 1.0000d-21
$ double precision, parameter :: f136 = 1.0000d-21
$ double precision, parameter :: f137 = 1.0000d-21
$ double precision, parameter :: f138 = 1.0000d-21
$ double precision, parameter :: f139 = 1.0000d-21
$ double precision, parameter :: f140 = 1.0000d-21
$ double precision, parameter :: f141 = 1.0000d-21
$ double precision, parameter :: f142 = 1.0000d-21
$ double precision, parameter :: f143 = 1.0000d-21
$ double precision, parameter :: f144 = 1.0000d-21
$ double precision, parameter :: f145 = 1.0000d-21
$ double precision, parameter :: f146 = 1.0000d-21
$ double precision, parameter :: f147 = 1.0000d-21
$ double precision, parameter :: f148 = 1.0000d-21
$ double precision, parameter :: f149 = 1.0000d-21
$ double precision, parameter :: f150 = 1.0000d-21
$ double precision, parameter :: f151 = 1.0000d-21
$ double precision, parameter :: f152 = 1.0000d-21
$ double precision, parameter :: f153 = 1.0000d-21
$ double precision, parameter :: f154 = 1.0000d-21
$ double precision, parameter :: f155 = 1.0000d-21
$ double precision, parameter :: f156 = 1.0000d-21
$ double precision, parameter :: f157 = 1.0000d-21
$ double precision, parameter :: f158 = 1.0000d-21
$ double precision, parameter :: f159 = 1.0000d-21
$ double precision, parameter :: f160 = 1.0000d-21
$ double precision, parameter :: f161 = 1.0000d-21
$ double precision, parameter :: f162 = 1.0000d-21
$ double precision, parameter :: f163 = 1.0000d-21
$ double precision, parameter :: f164 = 1.0000d-21
$ double precision, parameter :: f165 = 1.0000d-21
$ double precision, parameter :: f166 = 1.0000d-21
$ double precision, parameter :: f167 = 1.0000d-21
$ double precision, parameter :: f168 = 1.0000d-21
$ double precision, parameter :: f169 = 1.0000d-21
$ double precision, parameter :: f170 = 1.0000d-21
$ double precision, parameter :: f171 = 1.0000d-21
$ double precision, parameter :: f172 = 1.0000d-21
$ double precision, parameter :: f173 = 1.0000d-21
$ double precision, parameter :: f174 = 1.0000d-21
$ double precision, parameter :: f175 = 1.0000d-21
$ double precision, parameter :: f176 = 1.0000d-21
$ double precision, parameter :: f177 = 1.0000d-21
$ double precision, parameter :: f178 = 1.0000d-21
$ double precision, parameter :: f179 = 1.0000d-21
$ double precision, parameter :: f180 = 1.0000d-21
$ double precision, parameter :: f181 = 1.0000d-21
$ double precision, parameter :: f182 = 1.0000d-21
$ double precision, parameter :: f183 = 1.0000d-21
$ double precision, parameter :: f184 = 1.0000d-21
$ double precision, parameter :: f185 = 1.0000d-21
$ double precision, parameter :: f186 = 1.0000d-21
$ double precision, parameter :: f187 = 1.0000d-21
$ double precision, parameter :: f188 = 1.0000d-21
$ double precision, parameter :: f189 = 1.0000d-21
$ double precision, parameter :: f190 = 1.0000d-21
$ double precision, parameter :: f191 = 1.0000d-21
$ double precision, parameter :: f192 = 1.0000d-21
$ double precision, parameter :: f193 = 1.0000d-21
$ double precision, parameter :: f194 = 1.0000d-21
$ double precision, parameter :: f195 = 1.0000d-21
$ double precision, parameter :: f196 = 1.0000d-21
$ double precision, parameter :: f197 = 1.0000d-21
$ double precision, parameter :: f198 = 1.0000d-21
$ double precision, parameter :: f199 = 1.0000d-21
$ double precision, parameter :: f200 = 1.0000d-21
$ double precision, parameter :: f201 = 1.0000d-21
$ double precision, parameter :: f202 = 1.0000d-21
$ double precision, parameter :: f203 = 1.0000d-21
$ double precision, parameter :: f204 = 1.0000d-21
$ double precision, parameter :: f205 = 1.0000d-21
$ double precision, parameter :: f206 = 1.0000d-21
$ double precision, parameter :: f207 = 1.0000d-21
$ double precision, parameter :: f208 = 1.0000d-21
$ double precision, parameter :: f209 = 1.0000d-21
$ double precision, parameter :: f210 = 1.0000d-21
$ double precision, parameter :: f211 = 1.0000d-21
$ double precision, parameter :: f212 = 1.0000d-21
$ double precision, parameter :: f213 = 1.0000d-21
$ double precision, parameter :: f214 = 1.0000d-21
$ double precision, parameter :: f215 = 1.0000d-21
$ double precision, parameter :: f216 = 1.0000d-21
$ double precision, parameter :: f217 = 1.0000d-21
$ double precision, parameter :: f218 = 1.0000d-21
$ double precision, parameter :: f219 = 1.0000d-21
$ double precision, parameter :: f220 = 3.3624d+11
$ double precision, parameter :: f221 = 1.0000d-21
$ double precision, parameter :: f222 = 1.0000d-21
$ double precision, parameter :: f223 = 2.9681d+10
$ double precision, parameter :: f224 = 1.0000d-21
$ double precision, parameter :: f225 = 1.0000d-21
$ double precision, parameter :: f226 = 9.9578d+14
$ double precision, parameter :: f227 = 1.0000d-21
$ double precision, parameter :: f228 = 1.0000d-21
$ double precision, parameter :: f229 = 1.0000d-21
$ double precision, parameter :: f230 = 1.0000d-21
$ double precision, parameter :: f231 = 1.0000d-21
$ double precision, parameter :: f232 = 1.0000d-21
$ double precision, parameter :: f233 = 1.0000d-21
$ double precision, parameter :: f234 = 1.0000d-21
$ double precision, parameter :: f235 = 1.0000d-21
$ double precision, parameter :: f236 = 1.0000d-21
$ double precision, parameter :: f237 = 1.0000d-21
$ double precision, parameter :: f238 = 1.0000d-21
$ double precision, parameter :: f239 = 1.0000d-21
$ double precision, parameter :: f240 = 1.0000d-21
$ double precision, parameter :: f241 = 1.0000d-21
$ double precision, parameter :: f242 = 1.0000d-21
$ double precision, parameter :: f243 = 1.0000d-21
$ double precision, parameter :: f244 = 1.0000d-21
$ double precision, parameter :: f245 = 1.0000d-21
$ double precision, parameter :: f246 = 1.0000d-21
$ double precision, parameter :: f247 = 1.0000d-21
$ double precision, parameter :: f248 = 1.0000d-21
$ double precision, parameter :: f249 = 1.0000d-21
$ double precision, parameter :: f250 = 1.0000d-21
$ double precision, parameter :: f251 = 1.0000d-21
$ double precision, parameter :: f252 = 1.0000d-21
$ double precision, parameter :: f253 = 1.0000d-21
$ double precision, parameter :: f254 = 1.0000d-21
$ double precision, parameter :: f255 = 1.0000d-21
$ double precision, parameter :: f256 = 1.0000d-21
$ double precision, parameter :: f257 = 1.0000d-21
$ double precision, parameter :: f258 = 1.0000d-21
$ double precision, parameter :: f259 = 1.0000d-21
$ double precision, parameter :: f260 = 1.0000d-21
$ double precision, parameter :: f261 = 1.0000d-21
$ double precision, parameter :: f262 = 1.0000d-21
$ double precision, parameter :: f263 = 1.0000d-21
$ double precision, parameter :: f264 = 1.0000d-21
$ double precision, parameter :: f265 = 1.0000d-21
$ double precision, parameter :: f266 = 1.0000d-21
$ double precision, parameter :: f267 = 1.0000d-21
$ double precision, parameter :: f268 = 1.0000d-21
$ double precision, parameter :: f269 = 1.0000d-21
$ double precision, parameter :: f270 = 1.0000d-21
$ double precision, parameter :: f271 = 1.0000d-21
$ double precision, parameter :: f272 = 1.0000d-21
$ double precision, parameter :: f273 = 9.8548d-2
$ double precision, parameter :: f274 = 1.0000d-21
$ double precision, parameter :: f275 = 1.0000d-21
$ double precision, parameter :: f276 = 1.5378d-3
$ double precision, parameter :: f277 = 1.0000d-21
$ double precision, parameter :: f278 = 1.0000d-21
$ double precision, parameter :: f279 = 1.0000d-21
$ double precision, parameter :: f280 = 1.0000d-21
$ double precision, parameter :: f281 = 1.0000d-21
$ double precision, parameter :: f282 = 1.0000d-21
$ double precision, parameter :: f283 = 1.0000d-21
$ double precision, parameter :: f284 = 1.0000d-21
$ double precision, parameter :: f285 = 1.0000d-21
$ double precision, parameter :: f286 = 1.0000d-21
$ double precision, parameter :: f287 = 1.0000d-21
$ double precision, parameter :: f288 = 1.0000d-21
$ double precision, parameter :: f289 = 1.0000d-21
$ double precision, parameter :: f290 = 1.0000d-21
$ double precision, parameter :: f291 = 1.0000d-21
$ double precision, parameter :: f292 = 1.0000d-21
$ double precision, parameter :: f293 = 1.0000d-21
$ double precision, parameter :: f294 = 1.0000d-21
$ double precision, parameter :: f295 = 1.0000d-21
$ double precision, parameter :: f296 = 1.0000d-21
$ double precision, parameter :: f297 = 1.0000d-21
$ double precision, parameter :: f298 = 1.0000d-21
$ double precision, parameter :: f299 = 1.0000d-21
$ double precision, parameter :: f300 = 1.0000d-21
$ double precision, parameter :: f301 = 1.0000d-21
$ double precision, parameter :: f302 = 1.0000d-21
$ double precision, parameter :: f303 = 1.0000d-21
$ double precision, parameter :: f304 = 1.0000d-21
$ double precision, parameter :: f305 = 1.0000d-21
$ double precision, parameter :: f306 = 1.0000d-21
$ double precision, parameter :: f307 = 1.0000d-21
$ double precision, parameter :: f308 = 1.0000d-21
$ double precision, parameter :: f309 = 1.0000d-21
$ double precision, parameter :: f310 = 1.0000d-21
$ double precision, parameter :: f311 = 1.0000d-21
$ double precision, parameter :: f312 = 1.0000d-21
$ double precision, parameter :: f313 = 5.1181d-1
$ double precision, parameter :: f314 = 1.0000d-21
$ double precision, parameter :: f315 = 1.0011d+19

# Electron Collision Reaction
e + CH4 => e + CH4(v24)		! f0 * Bolsig+ CH4 -> CH4(v24)
e + CH4 => e + CH4(v13)		! f1 * Bolsig+ CH4 -> CH4(v13)
e + C2H6 => e + C2H6(v24)		! f2 * Bolsig+ C2H6 -> C2H6(v24)
e + C2H6 => e + C2H6(v13)		! f3 * Bolsig+ C2H6 -> C2H6(v13)
e + C2H4 => e + C2H4(v1)		! f4 * Bolsig+ C2H4 -> C2H4(v1)
e + C2H4 => e + C2H4(v2)		! f5 * Bolsig+ C2H4 -> C2H4(v2)
e + C2H2 => e + C2H2(v5)		! f6 * Bolsig+ C2H2 -> C2H2(v5)
e + C2H2 => e + C2H2(v2)		! f7 * Bolsig+ C2H2 -> C2H2(v2)
e + C2H2 => e + C2H2(v13)		! f8 * Bolsig+ C2H2 -> C2H2(v13)
e + C3H8 => e + C3H8(v1)		! f9 * Bolsig+ C3H8 -> C3H8(v1)
e + C3H8 => e + C3H8(v2)		! f10 * Bolsig+ C3H8 -> C3H8(v2)
e + C3H6 => e + C3H6(v)		! f11 * Bolsig+ C3H6 -> C3H6(v)
e + CH4 => e + CH3 + H		! f12 * Bolsig+ CH4 -> CH3 H
e + CH4(v24) => e + CH3 + H		! f12 * Bolsig+ CH4(v24) -> CH3 H
e + CH4(v13) => e + CH3 + H		! f12 * Bolsig+ CH4(v13) -> CH3 H
e + CH4 => e + CH2 + H2		! f13 * Bolsig+ CH4 -> CH2 H2
e + CH4(v24) => e + CH2 + H2		! f13 * Bolsig+ CH4(v24) -> CH2 H2
e + CH4(v13) => e + CH2 + H2		! f13 * Bolsig+ CH4(v13) -> CH2 H2
e + CH4 => e + CH + H2 + H		! f14 * Bolsig+ CH4 -> CH H2 H
e + CH4(v24) => e + CH + H2 + H		! f14 * Bolsig+ CH4(v24) -> CH H2 H
e + CH4(v13) => e + CH + H2 + H		! f14 * Bolsig+ CH4(v13) -> CH H2 H
e + CH4 => e + C + H2 + H2		! f15 * Bolsig+ CH4 -> C H2 H2
e + CH4(v24) => e + C + H2 + H2		! f15 * Bolsig+ CH4(v24) -> C H2 H2
e + CH4(v13) => e + C + H2 + H2		! f15 * Bolsig+ CH4(v13) -> C H2 H2
e + CH3 => e + CH2 + H		! f16 * Bolsig+ CH3 -> CH2 H
e + CH3 => e + CH + H2		! f17 * Bolsig+ CH3 -> CH H2
e + CH3 => e + C + H2 + H		! f18 * Bolsig+ CH3 -> C H2 H
e + CH2 => e + CH + H		! f19 * Bolsig+ CH2 -> CH H
e + CH2 => e + C + H2		! f20 * Bolsig+ CH2 -> C H2
e + CH2 => e + C + H + H		! f21 * Bolsig+ CH2 -> C H H
e + CH => e + C + H		! f22 * Bolsig+ CH -> C H
e + CH4 => e + e + CH4^+		! f23 * Bolsig+ CH4 -> CH4^+
e + CH4(v24) => e + e + CH4^+		! f23 * Bolsig+ CH4(v24) -> CH4^+
e + CH4(v13) => e + e + CH4^+		! f23 * Bolsig+ CH4(v13) -> CH4^+
e + CH4 => e + e + H + CH3^+		! f24 * Bolsig+ CH4 -> H CH3^+
e + CH4(v24) => e + e + H + CH3^+		! f24 * Bolsig+ CH4(v24) -> H CH3^+
e + CH4(v13) => e + e + H + CH3^+		! f24 * Bolsig+ CH4(v13) -> H CH3^+
e + CH4 => e + e + H2 + CH2^+		! f25 * Bolsig+ CH4 -> H2 CH2^+
e + CH4(v24) => e + e + H2 + CH2^+		! f25 * Bolsig+ CH4(v24) -> H2 CH2^+
e + CH4(v13) => e + e + H2 + CH2^+		! f25 * Bolsig+ CH4(v13) -> H2 CH2^+
e + CH4 => e + e + H2 + H + CH^+		! f26 * Bolsig+ CH4 -> H2 H CH^+
e + CH4(v24) => e + e + H2 + H + CH^+		! f26 * Bolsig+ CH4(v24) -> H2 H CH^+
e + CH4(v13) => e + e + H2 + H + CH^+		! f26 * Bolsig+ CH4(v13) -> H2 H CH^+
e + CH3 => e + e + CH3^+		! f27 * Bolsig+ CH3 -> CH3^+
e + CH3 => e + e + H + CH2^+		! f28 * Bolsig+ CH3 -> H CH2^+
e + CH3 => e + e + H2 + CH^+		! f29 * Bolsig+ CH3 -> H2 CH^+
e + CH2 => e + e + CH2^+		! f30 * Bolsig+ CH2 -> CH2^+
e + CH2 => e + e + H + CH^+		! f31 * Bolsig+ CH2 -> H CH^+
e + CH => e + e + CH^+		! f32 * Bolsig+ CH -> CH^+
e + C2H6 => e + C2H5 + H		! f33 * Bolsig+ C2H6 -> C2H5 H
e + C2H6(v24) => e + C2H5 + H		! f33 * Bolsig+ C2H6(v24) -> C2H5 H
e + C2H6(v13) => e + C2H5 + H		! f33 * Bolsig+ C2H6(v13) -> C2H5 H
e + C2H6 => e + C2H4 + H2		! f34 * Bolsig+ C2H6 -> C2H4 H2
e + C2H6(v24) => e + C2H4 + H2		! f34 * Bolsig+ C2H6(v24) -> C2H4 H2
e + C2H6(v13) => e + C2H4 + H2		! f34 * Bolsig+ C2H6(v13) -> C2H4 H2
e + C2H6 => e + C2H3 + H2 + H		! f35 * Bolsig+ C2H6 -> C2H3 H2 H
e + C2H6(v24) => e + C2H3 + H2 + H		! f35 * Bolsig+ C2H6(v24) -> C2H3 H2 H
e + C2H6(v13) => e + C2H3 + H2 + H		! f35 * Bolsig+ C2H6(v13) -> C2H3 H2 H
e + C2H6 => e + C2H2 + H2 + H2		! f36 * Bolsig+ C2H6 -> C2H2 H2 H2
e + C2H6(v24) => e + C2H2 + H2 + H2		! f36 * Bolsig+ C2H6(v24) -> C2H2 H2 H2
e + C2H6(v13) => e + C2H2 + H2 + H2		! f36 * Bolsig+ C2H6(v13) -> C2H2 H2 H2
e + C2H6 => e + CH4 + CH2		! f37 * Bolsig+ C2H6 -> CH4 CH2
e + C2H6(v24) => e + CH4 + CH2		! f37 * Bolsig+ C2H6(v24) -> CH4 CH2
e + C2H6(v13) => e + CH4 + CH2		! f37 * Bolsig+ C2H6(v13) -> CH4 CH2
e + C2H6 => e + CH3 + CH3		! f38 * Bolsig+ C2H6 -> CH3 CH3
e + C2H6(v24) => e + CH3 + CH3		! f38 * Bolsig+ C2H6(v24) -> CH3 CH3
e + C2H6(v13) => e + CH3 + CH3		! f38 * Bolsig+ C2H6(v13) -> CH3 CH3
e + C2H5 => e + C2H4 + H		! f39 * Bolsig+ C2H5 -> C2H4 H
e + C2H5 => e + C2H3 + H2		! f40 * Bolsig+ C2H5 -> C2H3 H2
e + C2H5 => e + C2H3 + H + H		! f41 * Bolsig+ C2H5 -> C2H3 H H
e + C2H5 => e + C2H2 + H2 + H		! f42 * Bolsig+ C2H5 -> C2H2 H2 H
e + C2H5 => e + CH4 + CH		! f43 * Bolsig+ C2H5 -> CH4 CH
e + C2H5 => e + CH3 + CH2		! f44 * Bolsig+ C2H5 -> CH3 CH2
e + C2H4 => e + C2H3 + H		! f45 * Bolsig+ C2H4 -> C2H3 H
e + C2H4(v1) => e + C2H3 + H		! f45 * Bolsig+ C2H4(v1) -> C2H3 H
e + C2H4(v2) => e + C2H3 + H		! f45 * Bolsig+ C2H4(v2) -> C2H3 H
e + C2H4 => e + C2H2 + H2		! f46 * Bolsig+ C2H4 -> C2H2 H2
e + C2H4(v1) => e + C2H2 + H2		! f46 * Bolsig+ C2H4(v1) -> C2H2 H2
e + C2H4(v2) => e + C2H2 + H2		! f46 * Bolsig+ C2H4(v2) -> C2H2 H2
e + C2H4 => e + C2H2 + H + H		! f47 * Bolsig+ C2H4 -> C2H2 H H
e + C2H4(v1) => e + C2H2 + H + H		! f47 * Bolsig+ C2H4(v1) -> C2H2 H H
e + C2H4(v2) => e + C2H2 + H + H		! f47 * Bolsig+ C2H4(v2) -> C2H2 H H
e + C2H4 => e + CH3 + CH		! f48 * Bolsig+ C2H4 -> CH3 CH
e + C2H4(v1) => e + CH3 + CH		! f48 * Bolsig+ C2H4(v1) -> CH3 CH
e + C2H4(v2) => e + CH3 + CH		! f48 * Bolsig+ C2H4(v2) -> CH3 CH
e + C2H4 => e + CH2 + CH2		! f49 * Bolsig+ C2H4 -> CH2 CH2
e + C2H4(v1) => e + CH2 + CH2		! f49 * Bolsig+ C2H4(v1) -> CH2 CH2
e + C2H4(v2) => e + CH2 + CH2		! f49 * Bolsig+ C2H4(v2) -> CH2 CH2
e + C2H3 => e + C2H2 + H		! f50 * Bolsig+ C2H3 -> C2H2 H
e + C2H3 => e + CH2 + CH		! f51 * Bolsig+ C2H3 -> CH2 CH
e + C2H2 => e + CH + CH		! f52 * Bolsig+ C2H2 -> CH CH
e + C2H2(v5) => e + CH + CH		! f52 * Bolsig+ C2H2(v5) -> CH CH
e + C2H2(v2) => e + CH + CH		! f52 * Bolsig+ C2H2(v2) -> CH CH
e + C2H2(v13) => e + CH + CH		! f52 * Bolsig+ C2H2(v13) -> CH CH
e + C2H6 => e + e + C2H6^+		! f53 * Bolsig+ C2H6 -> C2H6^+
e + C2H6(v24) => e + e + C2H6^+		! f53 * Bolsig+ C2H6(v24) -> C2H6^+
e + C2H6(v13) => e + e + C2H6^+		! f53 * Bolsig+ C2H6(v13) -> C2H6^+
e + C2H6 => e + e + H + C2H5^+		! f54 * Bolsig+ C2H6 -> H C2H5^+
e + C2H6(v24) => e + e + H + C2H5^+		! f54 * Bolsig+ C2H6(v24) -> H C2H5^+
e + C2H6(v13) => e + e + H + C2H5^+		! f54 * Bolsig+ C2H6(v13) -> H C2H5^+
e + C2H6 => e + e + H2 + C2H4^+		! f55 * Bolsig+ C2H6 -> H2 C2H4^+
e + C2H6(v24) => e + e + H2 + C2H4^+		! f55 * Bolsig+ C2H6(v24) -> H2 C2H4^+
e + C2H6(v13) => e + e + H2 + C2H4^+		! f55 * Bolsig+ C2H6(v13) -> H2 C2H4^+
e + C2H6 => e + e + H2 + H + C2H3^+		! f56 * Bolsig+ C2H6 -> H2 H C2H3^+
e + C2H6(v24) => e + e + H2 + H + C2H3^+		! f56 * Bolsig+ C2H6(v24) -> H2 H C2H3^+
e + C2H6(v13) => e + e + H2 + H + C2H3^+		! f56 * Bolsig+ C2H6(v13) -> H2 H C2H3^+
e + C2H6 => e + e + H2 + H2 + C2H2^+		! f57 * Bolsig+ C2H6 -> H2 H2 C2H2^+
e + C2H6(v24) => e + e + H2 + H2 + C2H2^+		! f57 * Bolsig+ C2H6(v24) -> H2 H2 C2H2^+
e + C2H6(v13) => e + e + H2 + H2 + C2H2^+		! f57 * Bolsig+ C2H6(v13) -> H2 H2 C2H2^+
e + C2H6 => e + e + CH3 + CH3^+		! f58 * Bolsig+ C2H6 -> CH3 CH3^+
e + C2H6(v24) => e + e + CH3 + CH3^+		! f58 * Bolsig+ C2H6(v24) -> CH3 CH3^+
e + C2H6(v13) => e + e + CH3 + CH3^+		! f58 * Bolsig+ C2H6(v13) -> CH3 CH3^+
e + C2H6 => e + e + CH4 + CH2^+		! f59 * Bolsig+ C2H6 -> CH4 CH2^+
e + C2H6(v24) => e + e + CH4 + CH2^+		! f59 * Bolsig+ C2H6(v24) -> CH4 CH2^+
e + C2H6(v13) => e + e + CH4 + CH2^+		! f59 * Bolsig+ C2H6(v13) -> CH4 CH2^+
e + C2H5 => e + e + C2H5^+		! f60 * Bolsig+ C2H5 -> C2H5^+
e + C2H5 => e + e + H + C2H4^+		! f61 * Bolsig+ C2H5 -> H C2H4^+
e + C2H5 => e + e + H2 + C2H3^+		! f62 * Bolsig+ C2H5 -> H2 C2H3^+
e + C2H5 => e + e + H2 + H + C2H2^+		! f63 * Bolsig+ C2H5 -> H2 H C2H2^+
e + C2H5 => e + e + CH2 + CH3^+		! f64 * Bolsig+ C2H5 -> CH2 CH3^+
e + C2H5 => e + e + CH3 + CH2^+		! f65 * Bolsig+ C2H5 -> CH3 CH2^+
e + C2H5 => e + e + CH4 + CH^+		! f66 * Bolsig+ C2H5 -> CH4 CH^+
e + C2H4 => e + e + C2H4^+		! f67 * Bolsig+ C2H4 -> C2H4^+
e + C2H4(v1) => e + e + C2H4^+		! f67 * Bolsig+ C2H4(v1) -> C2H4^+
e + C2H4(v2) => e + e + C2H4^+		! f67 * Bolsig+ C2H4(v2) -> C2H4^+
e + C2H4 => e + e + H + C2H3^+		! f68 * Bolsig+ C2H4 -> H C2H3^+
e + C2H4(v1) => e + e + H + C2H3^+		! f68 * Bolsig+ C2H4(v1) -> H C2H3^+
e + C2H4(v2) => e + e + H + C2H3^+		! f68 * Bolsig+ C2H4(v2) -> H C2H3^+
e + C2H4 => e + e + CH + CH3^+		! f69 * Bolsig+ C2H4 -> CH CH3^+
e + C2H4(v1) => e + e + CH + CH3^+		! f69 * Bolsig+ C2H4(v1) -> CH CH3^+
e + C2H4(v2) => e + e + CH + CH3^+		! f69 * Bolsig+ C2H4(v2) -> CH CH3^+
e + C2H4 => e + e + CH2 + CH2^+		! f70 * Bolsig+ C2H4 -> CH2 CH2^+
e + C2H4(v1) => e + e + CH2 + CH2^+		! f70 * Bolsig+ C2H4(v1) -> CH2 CH2^+
e + C2H4(v2) => e + e + CH2 + CH2^+		! f70 * Bolsig+ C2H4(v2) -> CH2 CH2^+
e + C2H4 => e + e + CH3 + CH^+		! f71 * Bolsig+ C2H4 -> CH3 CH^+
e + C2H4(v1) => e + e + CH3 + CH^+		! f71 * Bolsig+ C2H4(v1) -> CH3 CH^+
e + C2H4(v2) => e + e + CH3 + CH^+		! f71 * Bolsig+ C2H4(v2) -> CH3 CH^+
e + C2H3 => e + e + C2H3^+		! f72 * Bolsig+ C2H3 -> C2H3^+
e + C2H3 => e + e + H + C2H2^+		! f73 * Bolsig+ C2H3 -> H C2H2^+
e + C2H3 => e + e + CH + CH2^+		! f74 * Bolsig+ C2H3 -> CH CH2^+
e + C2H3 => e + e + CH2 + CH^+		! f75 * Bolsig+ C2H3 -> CH2 CH^+
e + C2H3 => e + e + C2H2 + H^+		! f76 * Bolsig+ C2H3 -> C2H2 H^+
e + C2H2 => e + e + C2H2^+		! f77 * Bolsig+ C2H2 -> C2H2^+
e + C2H2(v5) => e + e + C2H2^+		! f77 * Bolsig+ C2H2(v5) -> C2H2^+
e + C2H2(v2) => e + e + C2H2^+		! f77 * Bolsig+ C2H2(v2) -> C2H2^+
e + C2H2(v13) => e + e + C2H2^+		! f77 * Bolsig+ C2H2(v13) -> C2H2^+
e + C2H2 => e + e + CH + CH^+		! f78 * Bolsig+ C2H2 -> CH CH^+
e + C2H2(v5) => e + e + CH + CH^+		! f78 * Bolsig+ C2H2(v5) -> CH CH^+
e + C2H2(v2) => e + e + CH + CH^+		! f78 * Bolsig+ C2H2(v2) -> CH CH^+
e + C2H2(v13) => e + e + CH + CH^+		! f78 * Bolsig+ C2H2(v13) -> CH CH^+
e + C3H8 => e + C3H7 + H		! f79 * Bolsig+ C3H8 -> C3H7 H
e + C3H8(v1) => e + C3H7 + H		! f79 * Bolsig+ C3H8(v1) -> C3H7 H
e + C3H8(v2) => e + C3H7 + H		! f79 * Bolsig+ C3H8(v2) -> C3H7 H
e + C3H8 => e + C3H6 + H2		! f80 * Bolsig+ C3H8 -> C3H6 H2
e + C3H8(v1) => e + C3H6 + H2		! f80 * Bolsig+ C3H8(v1) -> C3H6 H2
e + C3H8(v2) => e + C3H6 + H2		! f80 * Bolsig+ C3H8(v2) -> C3H6 H2
e + C3H7 => e + C3H6 + H		! f81 * Bolsig+ C3H7 -> C3H6 H
e + C3H8 => e + e + C3H8^+		! f82 * Bolsig+ C3H8 -> C3H8^+
e + C3H8(v1) => e + e + C3H8^+		! f82 * Bolsig+ C3H8(v1) -> C3H8^+
e + C3H8(v2) => e + e + C3H8^+		! f82 * Bolsig+ C3H8(v2) -> C3H8^+
e + C3H8 => e + e + H + C3H7^+		! f83 * Bolsig+ C3H8 -> H C3H7^+
e + C3H8(v1) => e + e + H + C3H7^+		! f83 * Bolsig+ C3H8(v1) -> H C3H7^+
e + C3H8(v2) => e + e + H + C3H7^+		! f83 * Bolsig+ C3H8(v2) -> H C3H7^+
e + C3H8 => e + e + H2 + C3H6^+		! f84 * Bolsig+ C3H8 -> H2 C3H6^+
e + C3H8(v1) => e + e + H2 + C3H6^+		! f84 * Bolsig+ C3H8(v1) -> H2 C3H6^+
e + C3H8(v2) => e + e + H2 + C3H6^+		! f84 * Bolsig+ C3H8(v2) -> H2 C3H6^+
e + C3H7 => e + e + C3H7^+		! f85 * Bolsig+ C3H7 -> C3H7^+
e + C3H7 => e + e + H + C3H6^+		! f86 * Bolsig+ C3H7 -> H C3H6^+
e + C3H6 => e + e + C3H6^+		! f87 * Bolsig+ C3H6 -> C3H6^+
e + C3H6(v) => e + e + C3H6^+		! f87 * Bolsig+ C3H6(v) -> C3H6^+
e + C3H6 => e + C2H2 + CH4		! f88 * Bolsig+ C3H6 -> C2H2 CH4
e + C3H6(v) => e + C2H2 + CH4		! f88 * Bolsig+ C3H6(v) -> C2H2 CH4
e + C3H6 => e + e + C2H2 + CH4^+		! f89 * Bolsig+ C3H6 -> C2H2 CH4^+
e + C3H6(v) => e + e + C2H2 + CH4^+		! f89 * Bolsig+ C3H6(v) -> C2H2 CH4^+

# Ion Recombination Reaction
e + e + CH^+ => e + CH		! f90 * 1.00d0
e + e + CH2^+ => e + CH2		! f91 * 1.00d0
e + e + CH3^+ => e + CH3		! f92 * 1.00d0
e + e + CH4^+ => e + CH4		! f93 * 1.00d0
e + e + C2H2^+ => e + C2H2		! f94 * 1.00d0
e + e + C2H3^+ => e + C2H3		! f95 * 1.00d0
e + e + C2H4^+ => e + C2H4		! f96 * 1.00d0
e + e + C2H5^+ => e + C2H5		! f97 * 1.00d0
e + e + C2H6^+ => e + C2H6		! f98 * 1.00d0
e + e + C3H6^+ => e + C3H6		! f99 * 1.00d0
e + e + C3H7^+ => e + C3H7		! f100 * 1.00d0
e + e + C3H8^+ => e + C3H8		! f101 * 1.00d0

# Gas Phase Reaction
e + CH4^+ => CH3 + H		! f102 * 1.18d-08 * (300./Tgas)**0.5
e + CH4^+ => CH2 + H + H		! f103 * 2.42d-08 * (300./Tgas)**0.5
e + CH4^+ => CH + H2 + H		! f104 * 1.41d-08 * (300./Tgas)**0.5
e + CH3^+ => CH2 + H		! f105 * 2.25d-08 * (300./Tgas)**0.5
e + CH3^+ => CH + H2		! f106 * 7.88d-09 * (300./Tgas)**0.5
e + CH3^+ => CH + H + H		! f107 * 9.00d-09 * (300./Tgas)**0.5
e + CH3^+ => C + H2 + H		! f108 * 1.69d-08 * (300./Tgas)**0.5
e + CH2^+ => CH + H		! f109 * 1.00d-08 * (300./Tgas)**0.5
e + CH2^+ => C + H2		! f110 * 4.82d-09 * (300./Tgas)**0.5
e + CH2^+ => C + H + H		! f111 * 2.53d-08 * (300./Tgas)**0.5
e + CH^+ => C + H		! f112 * 3.23d-08 * (300./Tgas)**0.42
e + C2H6^+ => C2H5 + H		! f113 * 2.19d-08 * (300./Tgas)**0.71
e + C2H6^+ => C2H4 + H + H		! f114 * 3.36d-08 * (300./Tgas)**0.71
e + C2H5^+ => C2H4 + H		! f115 * 7.70d-09 * (300./Tgas)**0.71
e + C2H5^+ => C2H3 + H + H		! f116 * 1.92d-08 * (300./Tgas)**0.71
e + C2H5^+ => C2H2 + H2 + H		! f117 * 1.60d-08 * (300./Tgas)**0.71
e + C2H5^+ => C2H2 + H + H + H		! f118 * 8.98d-09 * (300./Tgas)**0.71
e + C2H5^+ => CH3 + CH2		! f119 * 9.62d-09 * (300./Tgas)**0.71
e + C2H4^+ => C2H3 + H		! f120 * 8.29d-09 * (300./Tgas)**0.71
e + C2H4^+ => C2H2 + H + H		! f121 * 3.43d-08 * (300./Tgas)**0.71
e + C2H3^+ => C2H2 + H		! f122 * 1.34d-08 * (300./Tgas)**0.71
e + C2H2^+ => CH + CH		! f123 * 4.87d-09 * (300./Tgas)**0.71
e + H2^+ => H + H		! f124 * 3.17d21/(6.022d23 * Te**4.5)