ELEMENTS
e C H
END

SPECIES
e C2H4(v2) CH2^+ C3H8(v1) C2H3 C3H4 H^+ CH2 C2H6(v13) H C3H4^+ C2H6^+ C3H6(v) CH4^+ C2H4(v1) CH3 CH3^+ C2H6 C3H6^+ C3H8 C3H5 C3H5^+ C3H7^+ C3H8(v2) C3H8^+ C2H2(v5) C3H7 C2H2(v13) CH C2H5 C3H6
C2H2 C2H4^+ H2 C2H6(v24) C2H2(v2) CH4(v13) C2H3^+ CH4(v24) C2H2^+ C2H5^+ CH^+ H2^+ CH4 C2H4
END

BOLSIG
C2H4(v2) C2H3 C3H8(v1) C3H4 CH2 C2H6(v13) C2H4(v1) CH3 C2H6 C3H8 C3H5 C3H8(v2) C2H2(v5) C3H7 C2H5 CH C2H2(v13) C3H6 C2H2 H2 C2H6(v24) C2H2(v2) CH4(v13) CH4(v24) CH4 C2H4
END

REACTIONS
#
# electron collision reaction
#
e + CH4 => e + CH4(v24)			! Bolsig+ CH4 -> CH4(v24)
e + CH4 => e + CH4(v13)			! Bolsig+ CH4 -> CH4(v13)
e + C2H6 => e + C2H6(v24)			! Bolsig+ C2H6 -> C2H6(v24)
e + C2H6 => e + C2H6(v13)			! Bolsig+ C2H6 -> C2H6(v13)
e + C2H4 => e + C2H4(v1)			! Bolsig+ C2H4 -> C2H4(v1)
e + C2H4 => e + C2H4(v2)			! Bolsig+ C2H4 -> C2H4(v2)
e + C2H2 => e + C2H2(v5)			! Bolsig+ C2H2 -> C2H2(v5)
e + C2H2 => e + C2H2(v2)			! Bolsig+ C2H2 -> C2H2(v2)
e + C2H2 => e + C2H2(v13)			! Bolsig+ C2H2 -> C2H2(v13)
e + C3H8 => e + C3H8(v1)			! Bolsig+ C3H8 -> C3H8(v1)
e + C3H8 => e + C3H8(v2)			! Bolsig+ C3H8 -> C3H8(v2)
e + C3H6 => e + C3H6(v)			! Bolsig+ C3H6 -> C3H6(v)
e + CH4 => e + CH3 + H			! Bolsig+ CH4 -> CH3 H
e + CH4 => e + CH2 + H2			! Bolsig+ CH4 -> CH2 H2
e + CH4 => e + CH + H2 + H			! Bolsig+ CH4 -> CH H2 H
e + CH3 => e + CH2 + H			! Bolsig+ CH3 -> CH2 H
e + CH3 => e + CH + H2			! Bolsig+ CH3 -> CH H2
e + CH2 => e + CH + H			! Bolsig+ CH2 -> CH H
e + CH4 => e + e + CH4^+			! Bolsig+ CH4 -> CH4^+
e + CH4 => e + e + H + CH3^+			! Bolsig+ CH4 -> H CH3^+
e + CH4 => e + e + H2 + CH2^+			! Bolsig+ CH4 -> H2 CH2^+
e + CH4 => e + e + H2 + H + CH^+			! Bolsig+ CH4 -> H2 H CH^+
e + CH3 => e + e + CH3^+			! Bolsig+ CH3 -> CH3^+
e + CH3 => e + e + H + CH2^+			! Bolsig+ CH3 -> H CH2^+
e + CH3 => e + e + H2 + CH^+			! Bolsig+ CH3 -> H2 CH^+
e + CH2 => e + e + CH2^+			! Bolsig+ CH2 -> CH2^+
e + CH2 => e + e + H + CH^+			! Bolsig+ CH2 -> H CH^+
e + CH => e + e + CH^+			! Bolsig+ CH -> CH^+
e + C2H6 => e + C2H5 + H			! Bolsig+ C2H6 -> C2H5 H
e + C2H6 => e + C2H4 + H2			! Bolsig+ C2H6 -> C2H4 H2
e + C2H6 => e + C2H3 + H2 + H			! Bolsig+ C2H6 -> C2H3 H2 H
e + C2H6 => e + C2H2 + H2 + H2			! Bolsig+ C2H6 -> C2H2 H2 H2
e + C2H6 => e + CH4 + CH2			! Bolsig+ C2H6 -> CH4 CH2
e + C2H6 => e + CH3 + CH3			! Bolsig+ C2H6 -> CH3 CH3
e + C2H5 => e + C2H4 + H			! Bolsig+ C2H5 -> C2H4 H
e + C2H5 => e + C2H3 + H2			! Bolsig+ C2H5 -> C2H3 H2
e + C2H5 => e + C2H3 + H + H			! Bolsig+ C2H5 -> C2H3 H H
e + C2H5 => e + C2H2 + H2 + H			! Bolsig+ C2H5 -> C2H2 H2 H
e + C2H5 => e + CH4 + CH			! Bolsig+ C2H5 -> CH4 CH
e + C2H5 => e + CH3 + CH2			! Bolsig+ C2H5 -> CH3 CH2
e + C2H4 => e + C2H3 + H			! Bolsig+ C2H4 -> C2H3 H
e + C2H4 => e + C2H2 + H2			! Bolsig+ C2H4 -> C2H2 H2
e + C2H4 => e + C2H2 + H + H			! Bolsig+ C2H4 -> C2H2 H H
e + C2H4 => e + CH3 + CH			! Bolsig+ C2H4 -> CH3 CH
e + C2H4 => e + CH2 + CH2			! Bolsig+ C2H4 -> CH2 CH2
e + C2H3 => e + C2H2 + H			! Bolsig+ C2H3 -> C2H2 H
e + C2H3 => e + CH2 + CH			! Bolsig+ C2H3 -> CH2 CH
e + C2H2 => e + CH + CH			! Bolsig+ C2H2 -> CH CH
e + C3H8 => e + C3H7 + H			! Bolsig+ C3H8 -> C3H7 H
e + C3H8 => e + C3H6 + H2			! Bolsig+ C3H8 -> C3H6 H2
e + C3H8 => e + C3H4 + H2 + H2			! Bolsig+ C3H8 -> C3H4 H2 H2
e + C3H8 => e + C2H6 + CH2			! Bolsig+ C3H8 -> C2H6 CH2
e + C3H8 => e + C2H5 + CH3			! Bolsig+ C3H8 -> C2H5 CH3
e + C3H8 => e + C2H4 + CH4			! Bolsig+ C3H8 -> C2H4 CH4
e + C3H7 => e + C3H6 + H			! Bolsig+ C3H7 -> C3H6 H
e + C3H7 => e + C3H5 + H2			! Bolsig+ C3H7 -> C3H5 H2
e + C3H7 => e + C3H4 + H2 + H			! Bolsig+ C3H7 -> C3H4 H2 H
e + C3H7 => e + C2H4 + CH3			! Bolsig+ C3H7 -> C2H4 CH3
e + C3H7 => e + C2H3 + CH4			! Bolsig+ C3H7 -> C2H3 CH4
e + C3H6 => e + C3H5 + H			! Bolsig+ C3H6 -> C3H5 H
e + C3H6 => e + C3H4 + H2			! Bolsig+ C3H6 -> C3H4 H2
e + C3H6 => e + C2H4 + CH2			! Bolsig+ C3H6 -> C2H4 CH2
e + C3H6 => e + C2H3 + CH3			! Bolsig+ C3H6 -> C2H3 CH3
e + C3H6 => e + C2H2 + CH4			! Bolsig+ C3H6 -> C2H2 CH4
e + C3H5 => e + C3H4 + H			! Bolsig+ C3H5 -> C3H4 H
e + C3H5 => e + C2H2 + CH3			! Bolsig+ C3H5 -> C2H2 CH3
e + C3H4 => e + C2H3 + CH			! Bolsig+ C3H4 -> C2H3 CH
e + C3H4 => e + C2H2 + CH2			! Bolsig+ C3H4 -> C2H2 CH2
e + C2H6 => e + e + C2H6^+			! Bolsig+ C2H6 -> C2H6^+
e + C2H6 => e + e + H + C2H5^+			! Bolsig+ C2H6 -> H C2H5^+
e + C2H6 => e + e + H2 + C2H4^+			! Bolsig+ C2H6 -> H2 C2H4^+
e + C2H6 => e + e + H2 + H + C2H3^+			! Bolsig+ C2H6 -> H2 H C2H3^+
e + C2H6 => e + e + H2 + H2 + C2H2^+			! Bolsig+ C2H6 -> H2 H2 C2H2^+
e + C2H6 => e + e + CH3 + CH3^+			! Bolsig+ C2H6 -> CH3 CH3^+
e + C2H6 => e + e + CH4 + CH2^+			! Bolsig+ C2H6 -> CH4 CH2^+
e + C2H5 => e + e + C2H5^+			! Bolsig+ C2H5 -> C2H5^+
e + C2H5 => e + e + H + C2H4^+			! Bolsig+ C2H5 -> H C2H4^+
e + C2H5 => e + e + H2 + C2H3^+			! Bolsig+ C2H5 -> H2 C2H3^+
e + C2H5 => e + e + H2 + H + C2H2^+			! Bolsig+ C2H5 -> H2 H C2H2^+
e + C2H5 => e + e + CH2 + CH3^+			! Bolsig+ C2H5 -> CH2 CH3^+
e + C2H5 => e + e + CH3 + CH2^+			! Bolsig+ C2H5 -> CH3 CH2^+
e + C2H5 => e + e + CH4 + CH^+			! Bolsig+ C2H5 -> CH4 CH^+
e + C2H4 => e + e + C2H4^+			! Bolsig+ C2H4 -> C2H4^+
e + C2H4 => e + e + H + C2H3^+			! Bolsig+ C2H4 -> H C2H3^+
e + C2H4 => e + e + CH + CH3^+			! Bolsig+ C2H4 -> CH CH3^+
e + C2H4 => e + e + CH2 + CH2^+			! Bolsig+ C2H4 -> CH2 CH2^+
e + C2H4 => e + e + CH3 + CH^+			! Bolsig+ C2H4 -> CH3 CH^+
e + C2H3 => e + e + C2H3^+			! Bolsig+ C2H3 -> C2H3^+
e + C2H3 => e + e + H + C2H2^+			! Bolsig+ C2H3 -> H C2H2^+
e + C2H3 => e + e + CH + CH2^+			! Bolsig+ C2H3 -> CH CH2^+
e + C2H3 => e + e + CH2 + CH^+			! Bolsig+ C2H3 -> CH2 CH^+
e + C2H3 => e + e + C2H2 + H^+			! Bolsig+ C2H3 -> C2H2 H^+
e + C2H2 => e + e + C2H2^+			! Bolsig+ C2H2 -> C2H2^+
e + C2H2 => e + e + CH + CH^+			! Bolsig+ C2H2 -> CH CH^+
e + C3H8 => e + e + C3H8^+			! Bolsig+ C3H8 -> C3H8^+
e + C3H8 => e + e + H + C3H7^+			! Bolsig+ C3H8 -> H C3H7^+
e + C3H8 => e + e + H2 + C3H6^+			! Bolsig+ C3H8 -> H2 C3H6^+
e + C3H8 => e + e + H2 + H + C3H5^+			! Bolsig+ C3H8 -> H2 H C3H5^+
e + C3H8 => e + e + H2 + H2 + C3H4^+			! Bolsig+ C3H8 -> H2 H2 C3H4^+
e + C3H8 => e + e + CH3 + C2H5^+			! Bolsig+ C3H8 -> CH3 C2H5^+
e + C3H8 => e + e + CH4 + C2H4^+			! Bolsig+ C3H8 -> CH4 C2H4^+
e + C3H8 => e + e + C2H5 + CH3^+			! Bolsig+ C3H8 -> C2H5 CH3^+
e + C3H8 => e + e + C2H6 + CH2^+			! Bolsig+ C3H8 -> C2H6 CH2^+
e + C3H7 => e + e + C3H7^+			! Bolsig+ C3H7 -> C3H7^+
e + C3H7 => e + e + H + C3H6^+			! Bolsig+ C3H7 -> H C3H6^+
e + C3H7 => e + e + H2 + C3H5^+			! Bolsig+ C3H7 -> H2 C3H5^+
e + C3H7 => e + e + H2 + H + C3H4^+			! Bolsig+ C3H7 -> H2 H C3H4^+
e + C3H7 => e + e + CH2 + C2H5^+			! Bolsig+ C3H7 -> CH2 C2H5^+
e + C3H7 => e + e + CH3 + C2H4^+			! Bolsig+ C3H7 -> CH3 C2H4^+
e + C3H7 => e + e + CH4 + C2H3^+			! Bolsig+ C3H7 -> CH4 C2H3^+
e + C3H7 => e + e + C2H3 + CH4^+			! Bolsig+ C3H7 -> C2H3 CH4^+
e + C3H7 => e + e + C2H4 + CH3^+			! Bolsig+ C3H7 -> C2H4 CH3^+
e + C3H7 => e + e + C2H5 + CH2^+			! Bolsig+ C3H7 -> C2H5 CH2^+
e + C3H7 => e + e + C2H6 + CH^+			! Bolsig+ C3H7 -> C2H6 CH^+
e + C3H6 => e + e + C3H6^+			! Bolsig+ C3H6 -> C3H6^+
e + C3H6 => e + e + H + C3H5^+			! Bolsig+ C3H6 -> H C3H5^+
e + C3H6 => e + e + H2 + C3H4^+			! Bolsig+ C3H6 -> H2 C3H4^+
e + C3H6 => e + e + CH + C2H5^+			! Bolsig+ C3H6 -> CH C2H5^+
e + C3H6 => e + e + CH2 + C2H4^+			! Bolsig+ C3H6 -> CH2 C2H4^+
e + C3H6 => e + e + CH3 + C2H3^+			! Bolsig+ C3H6 -> CH3 C2H3^+
e + C3H6 => e + e + CH4 + C2H2^+			! Bolsig+ C3H6 -> CH4 C2H2^+
e + C3H6 => e + e + C2H2 + CH4^+			! Bolsig+ C3H6 -> C2H2 CH4^+
e + C3H6 => e + e + C2H3 + CH3^+			! Bolsig+ C3H6 -> C2H3 CH3^+
e + C3H6 => e + e + C2H4 + CH2^+			! Bolsig+ C3H6 -> C2H4 CH2^+
e + C3H6 => e + e + C2H5 + CH^+			! Bolsig+ C3H6 -> C2H5 CH^+
e + C3H5 => e + e + C3H5^+			! Bolsig+ C3H5 -> C3H5^+
e + C3H5 => e + e + H + C3H4^+			! Bolsig+ C3H5 -> H C3H4^+
e + C3H5 => e + e + CH + C2H4^+			! Bolsig+ C3H5 -> CH C2H4^+
e + C3H5 => e + e + CH2 + C2H3^+			! Bolsig+ C3H5 -> CH2 C2H3^+
e + C3H5 => e + e + CH3 + C2H2^+			! Bolsig+ C3H5 -> CH3 C2H2^+
e + C3H5 => e + e + C2H2 + CH3^+			! Bolsig+ C3H5 -> C2H2 CH3^+
e + C3H5 => e + e + C2H3 + CH2^+			! Bolsig+ C3H5 -> C2H3 CH2^+
e + C3H5 => e + e + C2H4 + CH^+			! Bolsig+ C3H5 -> C2H4 CH^+
e + C3H4 => e + e + C3H4^+			! Bolsig+ C3H4 -> C3H4^+
e + C3H4 => e + e + CH + C2H3^+			! Bolsig+ C3H4 -> CH C2H3^+
e + C3H4 => e + e + CH2 + C2H2^+			! Bolsig+ C3H4 -> CH2 C2H2^+
e + C3H4 => e + e + C2H2 + CH2^+			! Bolsig+ C3H4 -> C2H2 CH2^+
e + C3H4 => e + e + C2H3 + CH^+			! Bolsig+ C3H4 -> C2H3 CH^+
e + CH4(v24) => e + CH3 + H			! Bolsig+ CH4(v24) -> CH3 H
e + CH4(v13) => e + CH3 + H			! Bolsig+ CH4(v13) -> CH3 H
e + CH4(v24) => e + CH2 + H2			! Bolsig+ CH4(v24) -> CH2 H2
e + CH4(v13) => e + CH2 + H2			! Bolsig+ CH4(v13) -> CH2 H2
e + CH4(v24) => e + CH + H2 + H			! Bolsig+ CH4(v24) -> CH H2 H
e + CH4(v13) => e + CH + H2 + H			! Bolsig+ CH4(v13) -> CH H2 H
e + CH4(v24) => e + e + CH4^+			! Bolsig+ CH4(v24) -> CH4^+
e + CH4(v13) => e + e + CH4^+			! Bolsig+ CH4(v13) -> CH4^+
e + CH4(v24) => e + e + H + CH3^+			! Bolsig+ CH4(v24) -> H CH3^+
e + CH4(v13) => e + e + H + CH3^+			! Bolsig+ CH4(v13) -> H CH3^+
e + CH4(v24) => e + e + H2 + CH2^+			! Bolsig+ CH4(v24) -> H2 CH2^+
e + CH4(v13) => e + e + H2 + CH2^+			! Bolsig+ CH4(v13) -> H2 CH2^+
e + CH4(v24) => e + e + H2 + H + CH^+			! Bolsig+ CH4(v24) -> H2 H CH^+
e + CH4(v13) => e + e + H2 + H + CH^+			! Bolsig+ CH4(v13) -> H2 H CH^+
e + C2H6(v24) => e + C2H5 + H			! Bolsig+ C2H6(v24) -> C2H5 H
e + C2H6(v13) => e + C2H5 + H			! Bolsig+ C2H6(v13) -> C2H5 H
e + C2H6(v24) => e + C2H4 + H2			! Bolsig+ C2H6(v24) -> C2H4 H2
e + C2H6(v13) => e + C2H4 + H2			! Bolsig+ C2H6(v13) -> C2H4 H2
e + C2H6(v24) => e + C2H3 + H2 + H			! Bolsig+ C2H6(v24) -> C2H3 H2 H
e + C2H6(v13) => e + C2H3 + H2 + H			! Bolsig+ C2H6(v13) -> C2H3 H2 H
e + C2H6(v24) => e + C2H2 + H2 + H2			! Bolsig+ C2H6(v24) -> C2H2 H2 H2
e + C2H6(v13) => e + C2H2 + H2 + H2			! Bolsig+ C2H6(v13) -> C2H2 H2 H2
e + C2H6(v24) => e + CH4 + CH2			! Bolsig+ C2H6(v24) -> CH4 CH2
e + C2H6(v13) => e + CH4 + CH2			! Bolsig+ C2H6(v13) -> CH4 CH2
e + C2H6(v24) => e + CH3 + CH3			! Bolsig+ C2H6(v24) -> CH3 CH3
e + C2H6(v13) => e + CH3 + CH3			! Bolsig+ C2H6(v13) -> CH3 CH3
e + C2H4(v1) => e + C2H3 + H			! Bolsig+ C2H4(v1) -> C2H3 H
e + C2H4(v2) => e + C2H3 + H			! Bolsig+ C2H4(v2) -> C2H3 H
e + C2H4(v1) => e + C2H2 + H2			! Bolsig+ C2H4(v1) -> C2H2 H2
e + C2H4(v2) => e + C2H2 + H2			! Bolsig+ C2H4(v2) -> C2H2 H2
e + C2H4(v1) => e + C2H2 + H + H			! Bolsig+ C2H4(v1) -> C2H2 H H
e + C2H4(v2) => e + C2H2 + H + H			! Bolsig+ C2H4(v2) -> C2H2 H H
e + C2H4(v1) => e + CH3 + CH			! Bolsig+ C2H4(v1) -> CH3 CH
e + C2H4(v2) => e + CH3 + CH			! Bolsig+ C2H4(v2) -> CH3 CH
e + C2H4(v1) => e + CH2 + CH2			! Bolsig+ C2H4(v1) -> CH2 CH2
e + C2H4(v2) => e + CH2 + CH2			! Bolsig+ C2H4(v2) -> CH2 CH2
e + C2H2(v5) => e + CH + CH			! Bolsig+ C2H2(v5) -> CH CH
e + C2H2(v2) => e + CH + CH			! Bolsig+ C2H2(v2) -> CH CH
e + C2H2(v13) => e + CH + CH			! Bolsig+ C2H2(v13) -> CH CH
e + C3H8(v1) => e + C3H7 + H			! Bolsig+ C3H8(v1) -> C3H7 H
e + C3H8(v2) => e + C3H7 + H			! Bolsig+ C3H8(v2) -> C3H7 H
e + C3H8(v1) => e + C3H6 + H2			! Bolsig+ C3H8(v1) -> C3H6 H2
e + C3H8(v2) => e + C3H6 + H2			! Bolsig+ C3H8(v2) -> C3H6 H2
e + C3H8(v1) => e + C3H4 + H2 + H2			! Bolsig+ C3H8(v1) -> C3H4 H2 H2
e + C3H8(v2) => e + C3H4 + H2 + H2			! Bolsig+ C3H8(v2) -> C3H4 H2 H2
e + C3H8(v1) => e + C2H6 + CH2			! Bolsig+ C3H8(v1) -> C2H6 CH2
e + C3H8(v2) => e + C2H6 + CH2			! Bolsig+ C3H8(v2) -> C2H6 CH2
e + C3H8(v1) => e + C2H5 + CH3			! Bolsig+ C3H8(v1) -> C2H5 CH3
e + C3H8(v2) => e + C2H5 + CH3			! Bolsig+ C3H8(v2) -> C2H5 CH3
e + C3H8(v1) => e + C2H4 + CH4			! Bolsig+ C3H8(v1) -> C2H4 CH4
e + C3H8(v2) => e + C2H4 + CH4			! Bolsig+ C3H8(v2) -> C2H4 CH4
e + C2H6(v24) => e + e + C2H6^+			! Bolsig+ C2H6(v24) -> C2H6^+
e + C2H6(v13) => e + e + C2H6^+			! Bolsig+ C2H6(v13) -> C2H6^+
e + C2H6(v24) => e + e + H + C2H5^+			! Bolsig+ C2H6(v24) -> H C2H5^+
e + C2H6(v13) => e + e + H + C2H5^+			! Bolsig+ C2H6(v13) -> H C2H5^+
e + C2H6(v24) => e + e + H2 + C2H4^+			! Bolsig+ C2H6(v24) -> H2 C2H4^+
e + C2H6(v13) => e + e + H2 + C2H4^+			! Bolsig+ C2H6(v13) -> H2 C2H4^+
e + C2H6(v24) => e + e + H2 + H + C2H3^+			! Bolsig+ C2H6(v24) -> H2 H C2H3^+
e + C2H6(v13) => e + e + H2 + H + C2H3^+			! Bolsig+ C2H6(v13) -> H2 H C2H3^+
e + C2H6(v24) => e + e + H2 + H2 + C2H2^+			! Bolsig+ C2H6(v24) -> H2 H2 C2H2^+
e + C2H6(v13) => e + e + H2 + H2 + C2H2^+			! Bolsig+ C2H6(v13) -> H2 H2 C2H2^+
e + C2H6(v24) => e + e + CH3 + CH3^+			! Bolsig+ C2H6(v24) -> CH3 CH3^+
e + C2H6(v13) => e + e + CH3 + CH3^+			! Bolsig+ C2H6(v13) -> CH3 CH3^+
e + C2H6(v24) => e + e + CH4 + CH2^+			! Bolsig+ C2H6(v24) -> CH4 CH2^+
e + C2H6(v13) => e + e + CH4 + CH2^+			! Bolsig+ C2H6(v13) -> CH4 CH2^+
e + C2H4(v1) => e + e + C2H4^+			! Bolsig+ C2H4(v1) -> C2H4^+
e + C2H4(v2) => e + e + C2H4^+			! Bolsig+ C2H4(v2) -> C2H4^+
e + C2H4(v1) => e + e + H + C2H3^+			! Bolsig+ C2H4(v1) -> H C2H3^+
e + C2H4(v2) => e + e + H + C2H3^+			! Bolsig+ C2H4(v2) -> H C2H3^+
e + C2H4(v1) => e + e + CH + CH3^+			! Bolsig+ C2H4(v1) -> CH CH3^+
e + C2H4(v2) => e + e + CH + CH3^+			! Bolsig+ C2H4(v2) -> CH CH3^+
e + C2H4(v1) => e + e + CH2 + CH2^+			! Bolsig+ C2H4(v1) -> CH2 CH2^+
e + C2H4(v2) => e + e + CH2 + CH2^+			! Bolsig+ C2H4(v2) -> CH2 CH2^+
e + C2H4(v1) => e + e + CH3 + CH^+			! Bolsig+ C2H4(v1) -> CH3 CH^+
e + C2H4(v2) => e + e + CH3 + CH^+			! Bolsig+ C2H4(v2) -> CH3 CH^+
e + C2H2(v5) => e + e + C2H2^+			! Bolsig+ C2H2(v5) -> C2H2^+
e + C2H2(v2) => e + e + C2H2^+			! Bolsig+ C2H2(v2) -> C2H2^+
e + C2H2(v13) => e + e + C2H2^+			! Bolsig+ C2H2(v13) -> C2H2^+
e + C2H2(v5) => e + e + CH + CH^+			! Bolsig+ C2H2(v5) -> CH CH^+
e + C2H2(v2) => e + e + CH + CH^+			! Bolsig+ C2H2(v2) -> CH CH^+
e + C2H2(v13) => e + e + CH + CH^+			! Bolsig+ C2H2(v13) -> CH CH^+
e + C3H8(v1) => e + e + C3H8^+			! Bolsig+ C3H8(v1) -> C3H8^+
e + C3H8(v2) => e + e + C3H8^+			! Bolsig+ C3H8(v2) -> C3H8^+
e + C3H8(v1) => e + e + H + C3H7^+			! Bolsig+ C3H8(v1) -> H C3H7^+
e + C3H8(v2) => e + e + H + C3H7^+			! Bolsig+ C3H8(v2) -> H C3H7^+
e + C3H8(v1) => e + e + H2 + C3H6^+			! Bolsig+ C3H8(v1) -> H2 C3H6^+
e + C3H8(v2) => e + e + H2 + C3H6^+			! Bolsig+ C3H8(v2) -> H2 C3H6^+
e + C3H8(v1) => e + e + H2 + H + C3H5^+			! Bolsig+ C3H8(v1) -> H2 H C3H5^+
e + C3H8(v2) => e + e + H2 + H + C3H5^+			! Bolsig+ C3H8(v2) -> H2 H C3H5^+
e + C3H8(v1) => e + e + H2 + H2 + C3H4^+			! Bolsig+ C3H8(v1) -> H2 H2 C3H4^+
e + C3H8(v2) => e + e + H2 + H2 + C3H4^+			! Bolsig+ C3H8(v2) -> H2 H2 C3H4^+
e + C3H8(v1) => e + e + CH3 + C2H5^+			! Bolsig+ C3H8(v1) -> CH3 C2H5^+
e + C3H8(v2) => e + e + CH3 + C2H5^+			! Bolsig+ C3H8(v2) -> CH3 C2H5^+
e + C3H8(v1) => e + e + CH4 + C2H4^+			! Bolsig+ C3H8(v1) -> CH4 C2H4^+
e + C3H8(v2) => e + e + CH4 + C2H4^+			! Bolsig+ C3H8(v2) -> CH4 C2H4^+
e + C3H8(v1) => e + e + C2H5 + CH3^+			! Bolsig+ C3H8(v1) -> C2H5 CH3^+
e + C3H8(v2) => e + e + C2H5 + CH3^+			! Bolsig+ C3H8(v2) -> C2H5 CH3^+
e + C3H8(v1) => e + e + C2H6 + CH2^+			! Bolsig+ C3H8(v1) -> C2H6 CH2^+
e + C3H8(v2) => e + e + C2H6 + CH2^+			! Bolsig+ C3H8(v2) -> C2H6 CH2^+
e + H2 => e + H + H			! Bolsig+ H2 -> H H
e + H2 => e + e + H2^+			! Bolsig+ H2 -> H2^+
END