ELEMENTS
e C H
END

SPECIES
e C3H8(v1) C3H4 CH3 C2H6^+ C3H4^+ C2H4(v1) C2H3^+ C2H4(v2) C2H2 C3H5^+ C4H9 C2H2(v2) H C2H2(v13) CH^+ C2H6(v24) H2 H3^+ CH4(v13) CH4 CH4^+ C3H6 C2H C3H7 C2H5^+ CH2^+ CH3^+ C2H6 C2H2(v5) C4H9H
C2H5 C3H8(v2) C3H8^+ C2H3 C2H4^+ H^+ CH C3H7^+ C3H6(v) CH4(v24) C2H2^+ C3H5 H2^+ C2H4 C2H6(v13) CH2 C3H8 C3H6^+ C5H12 C2H^+ CH5^+
END

BOLSIG
C3H8(v1) C3H4 CH3 C2H4(v1) C2H4(v2) C2H2 C2H2(v2) C2H2(v13) C2H6(v24) H2 CH4(v13) CH4 C3H6 C3H7 C2H6 C2H2(v5) C2H5 C3H8(v2) C2H3 CH CH4(v24) C3H5 C2H4 C2H6(v13) CH2 C3H8
END

REACTIONS
#
# Kinetic parameters
#
$ double precision, parameter :: R = 8.314d-3
$ double precision, parameter :: fec = 1.000d0
$ double precision, parameter :: fir = 1.000d0
$ double precision, parameter :: fid = 1.000d0
$ double precision, parameter :: fin = 1.000d0
$ double precision, parameter :: f0= 1.000d0
$ double precision, parameter :: f1= 1.000d0
$ double precision, parameter :: f2= 1.000d0
$ double precision, parameter :: f3= 1.000d0
$ double precision, parameter :: f4= 1.000d0
$ double precision, parameter :: f5= 1.000d0
$ double precision, parameter :: f6= 1.000d0
$ double precision, parameter :: f7= 1.000d0
$ double precision, parameter :: f8= 1.000d0
$ double precision, parameter :: f9= 1.000d0
$ double precision, parameter :: f10= 1.000d0
$ double precision, parameter :: f11= 1.000d0
$ double precision, parameter :: f12= 1.000d0
$ double precision, parameter :: f13= 1.000d0
$ double precision, parameter :: f14= 1.000d0
$ double precision, parameter :: f15= 1.000d0
$ double precision, parameter :: f16= 1.000d0
$ double precision, parameter :: f17= 1.000d0
$ double precision, parameter :: f18= 1.000d0
#
# electron collision reaction
#
e + CH4 => e + CH4(v24)			! fec * Bolsig+ CH4 -> CH4(v24)
e + CH4 => e + CH4(v13)			! fec * Bolsig+ CH4 -> CH4(v13)
e + C2H6 => e + C2H6(v24)			! fec * Bolsig+ C2H6 -> C2H6(v24)
e + C2H6 => e + C2H6(v13)			! fec * Bolsig+ C2H6 -> C2H6(v13)
e + C2H4 => e + C2H4(v1)			! fec * Bolsig+ C2H4 -> C2H4(v1)
e + C2H4 => e + C2H4(v2)			! fec * Bolsig+ C2H4 -> C2H4(v2)
e + C2H2 => e + C2H2(v5)			! fec * Bolsig+ C2H2 -> C2H2(v5)
e + C2H2 => e + C2H2(v2)			! fec * Bolsig+ C2H2 -> C2H2(v2)
e + C2H2 => e + C2H2(v13)			! fec * Bolsig+ C2H2 -> C2H2(v13)
e + C3H8 => e + C3H8(v1)			! fec * Bolsig+ C3H8 -> C3H8(v1)
e + C3H8 => e + C3H8(v2)			! fec * Bolsig+ C3H8 -> C3H8(v2)
e + C3H6 => e + C3H6(v)			! fec * Bolsig+ C3H6 -> C3H6(v)
e + CH4 => e + CH3 + H			! fec * Bolsig+ CH4 -> CH3 H
e + CH4 => e + CH2 + H2			! fec * Bolsig+ CH4 -> CH2 H2
e + CH4 => e + CH + H2 + H			! fec * Bolsig+ CH4 -> CH H2 H
e + CH3 => e + CH2 + H			! fec * Bolsig+ CH3 -> CH2 H
e + CH3 => e + CH + H2			! fec * Bolsig+ CH3 -> CH H2
e + CH2 => e + CH + H			! fec * Bolsig+ CH2 -> CH H
e + CH4 => e + e + CH4^+			! fec * Bolsig+ CH4 -> CH4^+
e + CH4 => e + e + H + CH3^+			! fec * Bolsig+ CH4 -> H CH3^+
e + CH4 => e + e + H2 + CH2^+			! fec * Bolsig+ CH4 -> H2 CH2^+
e + CH4 => e + e + H2 + H + CH^+			! fec * Bolsig+ CH4 -> H2 H CH^+
e + CH3 => e + e + CH3^+			! fec * Bolsig+ CH3 -> CH3^+
e + CH3 => e + e + H + CH2^+			! fec * Bolsig+ CH3 -> H CH2^+
e + CH3 => e + e + H2 + CH^+			! fec * Bolsig+ CH3 -> H2 CH^+
e + CH2 => e + e + CH2^+			! fec * Bolsig+ CH2 -> CH2^+
e + CH2 => e + e + H + CH^+			! fec * Bolsig+ CH2 -> H CH^+
e + CH => e + e + CH^+			! fec * Bolsig+ CH -> CH^+
e + C2H6 => e + C2H5 + H			! fec * Bolsig+ C2H6 -> C2H5 H
e + C2H6 => e + C2H4 + H2			! fec * Bolsig+ C2H6 -> C2H4 H2
e + C2H6 => e + C2H3 + H2 + H			! fec * Bolsig+ C2H6 -> C2H3 H2 H
e + C2H6 => e + C2H2 + H2 + H2			! fec * Bolsig+ C2H6 -> C2H2 H2 H2
e + C2H6 => e + CH4 + CH2			! fec * Bolsig+ C2H6 -> CH4 CH2
e + C2H6 => e + CH3 + CH3			! fec * Bolsig+ C2H6 -> CH3 CH3
e + C2H5 => e + C2H4 + H			! fec * Bolsig+ C2H5 -> C2H4 H
e + C2H5 => e + C2H3 + H2			! fec * Bolsig+ C2H5 -> C2H3 H2
e + C2H5 => e + C2H3 + H + H			! fec * Bolsig+ C2H5 -> C2H3 H H
e + C2H5 => e + C2H2 + H2 + H			! fec * Bolsig+ C2H5 -> C2H2 H2 H
e + C2H5 => e + CH4 + CH			! fec * Bolsig+ C2H5 -> CH4 CH
e + C2H5 => e + CH3 + CH2			! fec * Bolsig+ C2H5 -> CH3 CH2
e + C2H4 => e + C2H3 + H			! fec * Bolsig+ C2H4 -> C2H3 H
e + C2H4 => e + C2H2 + H2			! fec * Bolsig+ C2H4 -> C2H2 H2
e + C2H4 => e + C2H2 + H + H			! fec * Bolsig+ C2H4 -> C2H2 H H
e + C2H4 => e + CH3 + CH			! fec * Bolsig+ C2H4 -> CH3 CH
e + C2H4 => e + CH2 + CH2			! fec * Bolsig+ C2H4 -> CH2 CH2
e + C2H3 => e + C2H2 + H			! fec * Bolsig+ C2H3 -> C2H2 H
e + C2H3 => e + CH2 + CH			! fec * Bolsig+ C2H3 -> CH2 CH
e + C2H2 => e + CH + CH			! fec * Bolsig+ C2H2 -> CH CH
e + C3H8 => e + C3H7 + H			! fec * Bolsig+ C3H8 -> C3H7 H
e + C3H8 => e + C3H6 + H2			! fec * Bolsig+ C3H8 -> C3H6 H2
e + C3H8 => e + C3H4 + H2 + H2			! fec * Bolsig+ C3H8 -> C3H4 H2 H2
e + C3H8 => e + C2H6 + CH2			! fec * Bolsig+ C3H8 -> C2H6 CH2
e + C3H8 => e + C2H5 + CH3			! fec * Bolsig+ C3H8 -> C2H5 CH3
e + C3H8 => e + C2H4 + CH4			! fec * Bolsig+ C3H8 -> C2H4 CH4
e + C3H7 => e + C3H6 + H			! fec * Bolsig+ C3H7 -> C3H6 H
e + C3H7 => e + C3H5 + H2			! fec * Bolsig+ C3H7 -> C3H5 H2
e + C3H7 => e + C3H4 + H2 + H			! fec * Bolsig+ C3H7 -> C3H4 H2 H
e + C3H7 => e + C2H4 + CH3			! fec * Bolsig+ C3H7 -> C2H4 CH3
e + C3H7 => e + C2H3 + CH4			! fec * Bolsig+ C3H7 -> C2H3 CH4
e + C3H6 => e + C3H5 + H			! fec * Bolsig+ C3H6 -> C3H5 H
e + C3H6 => e + C3H4 + H2			! fec * Bolsig+ C3H6 -> C3H4 H2
e + C3H6 => e + C2H4 + CH2			! fec * Bolsig+ C3H6 -> C2H4 CH2
e + C3H6 => e + C2H3 + CH3			! fec * Bolsig+ C3H6 -> C2H3 CH3
e + C3H6 => e + C2H2 + CH4			! fec * Bolsig+ C3H6 -> C2H2 CH4
e + C3H5 => e + C3H4 + H			! fec * Bolsig+ C3H5 -> C3H4 H
e + C3H5 => e + C2H2 + CH3			! fec * Bolsig+ C3H5 -> C2H2 CH3
e + C3H4 => e + C2H3 + CH			! fec * Bolsig+ C3H4 -> C2H3 CH
e + C3H4 => e + C2H2 + CH2			! fec * Bolsig+ C3H4 -> C2H2 CH2
e + C2H6 => e + e + C2H6^+			! fec * Bolsig+ C2H6 -> C2H6^+
e + C2H6 => e + e + H + C2H5^+			! fec * Bolsig+ C2H6 -> H C2H5^+
e + C2H6 => e + e + H2 + C2H4^+			! fec * Bolsig+ C2H6 -> H2 C2H4^+
e + C2H6 => e + e + H2 + H + C2H3^+			! fec * Bolsig+ C2H6 -> H2 H C2H3^+
e + C2H6 => e + e + H2 + H2 + C2H2^+			! fec * Bolsig+ C2H6 -> H2 H2 C2H2^+
e + C2H6 => e + e + CH3 + CH3^+			! fec * Bolsig+ C2H6 -> CH3 CH3^+
e + C2H6 => e + e + CH4 + CH2^+			! fec * Bolsig+ C2H6 -> CH4 CH2^+
e + C2H5 => e + e + C2H5^+			! fec * Bolsig+ C2H5 -> C2H5^+
e + C2H5 => e + e + H + C2H4^+			! fec * Bolsig+ C2H5 -> H C2H4^+
e + C2H5 => e + e + H2 + C2H3^+			! fec * Bolsig+ C2H5 -> H2 C2H3^+
e + C2H5 => e + e + H2 + H + C2H2^+			! fec * Bolsig+ C2H5 -> H2 H C2H2^+
e + C2H5 => e + e + CH2 + CH3^+			! fec * Bolsig+ C2H5 -> CH2 CH3^+
e + C2H5 => e + e + CH3 + CH2^+			! fec * Bolsig+ C2H5 -> CH3 CH2^+
e + C2H5 => e + e + CH4 + CH^+			! fec * Bolsig+ C2H5 -> CH4 CH^+
e + C2H4 => e + e + C2H4^+			! fec * Bolsig+ C2H4 -> C2H4^+
e + C2H4 => e + e + H + C2H3^+			! fec * Bolsig+ C2H4 -> H C2H3^+
e + C2H4 => e + e + CH + CH3^+			! fec * Bolsig+ C2H4 -> CH CH3^+
e + C2H4 => e + e + CH2 + CH2^+			! fec * Bolsig+ C2H4 -> CH2 CH2^+
e + C2H4 => e + e + CH3 + CH^+			! fec * Bolsig+ C2H4 -> CH3 CH^+
e + C2H3 => e + e + C2H3^+			! fec * Bolsig+ C2H3 -> C2H3^+
e + C2H3 => e + e + H + C2H2^+			! fec * Bolsig+ C2H3 -> H C2H2^+
e + C2H3 => e + e + CH + CH2^+			! fec * Bolsig+ C2H3 -> CH CH2^+
e + C2H3 => e + e + CH2 + CH^+			! fec * Bolsig+ C2H3 -> CH2 CH^+
e + C2H3 => e + e + C2H2 + H^+			! fec * Bolsig+ C2H3 -> C2H2 H^+
e + C2H2 => e + e + C2H2^+			! fec * Bolsig+ C2H2 -> C2H2^+
e + C2H2 => e + e + CH + CH^+			! fec * Bolsig+ C2H2 -> CH CH^+
e + C3H8 => e + e + C3H8^+			! fec * Bolsig+ C3H8 -> C3H8^+
e + C3H8 => e + e + H + C3H7^+			! fec * Bolsig+ C3H8 -> H C3H7^+
e + C3H8 => e + e + H2 + C3H6^+			! fec * Bolsig+ C3H8 -> H2 C3H6^+
e + C3H8 => e + e + H2 + H + C3H5^+			! fec * Bolsig+ C3H8 -> H2 H C3H5^+
e + C3H8 => e + e + H2 + H2 + C3H4^+			! fec * Bolsig+ C3H8 -> H2 H2 C3H4^+
e + C3H8 => e + e + CH3 + C2H5^+			! fec * Bolsig+ C3H8 -> CH3 C2H5^+
e + C3H8 => e + e + CH4 + C2H4^+			! fec * Bolsig+ C3H8 -> CH4 C2H4^+
e + C3H8 => e + e + C2H5 + CH3^+			! fec * Bolsig+ C3H8 -> C2H5 CH3^+
e + C3H8 => e + e + C2H6 + CH2^+			! fec * Bolsig+ C3H8 -> C2H6 CH2^+
e + C3H7 => e + e + C3H7^+			! fec * Bolsig+ C3H7 -> C3H7^+
e + C3H7 => e + e + H + C3H6^+			! fec * Bolsig+ C3H7 -> H C3H6^+
e + C3H7 => e + e + H2 + C3H5^+			! fec * Bolsig+ C3H7 -> H2 C3H5^+
e + C3H7 => e + e + H2 + H + C3H4^+			! fec * Bolsig+ C3H7 -> H2 H C3H4^+
e + C3H7 => e + e + CH2 + C2H5^+			! fec * Bolsig+ C3H7 -> CH2 C2H5^+
e + C3H7 => e + e + CH3 + C2H4^+			! fec * Bolsig+ C3H7 -> CH3 C2H4^+
e + C3H7 => e + e + CH4 + C2H3^+			! fec * Bolsig+ C3H7 -> CH4 C2H3^+
e + C3H7 => e + e + C2H3 + CH4^+			! fec * Bolsig+ C3H7 -> C2H3 CH4^+
e + C3H7 => e + e + C2H4 + CH3^+			! fec * Bolsig+ C3H7 -> C2H4 CH3^+
e + C3H7 => e + e + C2H5 + CH2^+			! fec * Bolsig+ C3H7 -> C2H5 CH2^+
e + C3H7 => e + e + C2H6 + CH^+			! fec * Bolsig+ C3H7 -> C2H6 CH^+
e + C3H6 => e + e + C3H6^+			! fec * Bolsig+ C3H6 -> C3H6^+
e + C3H6 => e + e + H + C3H5^+			! fec * Bolsig+ C3H6 -> H C3H5^+
e + C3H6 => e + e + H2 + C3H4^+			! fec * Bolsig+ C3H6 -> H2 C3H4^+
e + C3H6 => e + e + CH + C2H5^+			! fec * Bolsig+ C3H6 -> CH C2H5^+
e + C3H6 => e + e + CH2 + C2H4^+			! fec * Bolsig+ C3H6 -> CH2 C2H4^+
e + C3H6 => e + e + CH3 + C2H3^+			! fec * Bolsig+ C3H6 -> CH3 C2H3^+
e + C3H6 => e + e + CH4 + C2H2^+			! fec * Bolsig+ C3H6 -> CH4 C2H2^+
e + C3H6 => e + e + C2H2 + CH4^+			! fec * Bolsig+ C3H6 -> C2H2 CH4^+
e + C3H6 => e + e + C2H3 + CH3^+			! fec * Bolsig+ C3H6 -> C2H3 CH3^+
e + C3H6 => e + e + C2H4 + CH2^+			! fec * Bolsig+ C3H6 -> C2H4 CH2^+
e + C3H6 => e + e + C2H5 + CH^+			! fec * Bolsig+ C3H6 -> C2H5 CH^+
e + C3H5 => e + e + C3H5^+			! fec * Bolsig+ C3H5 -> C3H5^+
e + C3H5 => e + e + H + C3H4^+			! fec * Bolsig+ C3H5 -> H C3H4^+
e + C3H5 => e + e + CH + C2H4^+			! fec * Bolsig+ C3H5 -> CH C2H4^+
e + C3H5 => e + e + CH2 + C2H3^+			! fec * Bolsig+ C3H5 -> CH2 C2H3^+
e + C3H5 => e + e + CH3 + C2H2^+			! fec * Bolsig+ C3H5 -> CH3 C2H2^+
e + C3H5 => e + e + C2H2 + CH3^+			! fec * Bolsig+ C3H5 -> C2H2 CH3^+
e + C3H5 => e + e + C2H3 + CH2^+			! fec * Bolsig+ C3H5 -> C2H3 CH2^+
e + C3H5 => e + e + C2H4 + CH^+			! fec * Bolsig+ C3H5 -> C2H4 CH^+
e + C3H4 => e + e + C3H4^+			! fec * Bolsig+ C3H4 -> C3H4^+
e + C3H4 => e + e + CH + C2H3^+			! fec * Bolsig+ C3H4 -> CH C2H3^+
e + C3H4 => e + e + CH2 + C2H2^+			! fec * Bolsig+ C3H4 -> CH2 C2H2^+
e + C3H4 => e + e + C2H2 + CH2^+			! fec * Bolsig+ C3H4 -> C2H2 CH2^+
e + C3H4 => e + e + C2H3 + CH^+			! fec * Bolsig+ C3H4 -> C2H3 CH^+
e + CH4(v24) => e + CH3 + H			! fec * Bolsig+ CH4(v24) -> CH3 H
e + CH4(v13) => e + CH3 + H			! fec * Bolsig+ CH4(v13) -> CH3 H
e + CH4(v24) => e + CH2 + H2			! fec * Bolsig+ CH4(v24) -> CH2 H2
e + CH4(v13) => e + CH2 + H2			! fec * Bolsig+ CH4(v13) -> CH2 H2
e + CH4(v24) => e + CH + H2 + H			! fec * Bolsig+ CH4(v24) -> CH H2 H
e + CH4(v13) => e + CH + H2 + H			! fec * Bolsig+ CH4(v13) -> CH H2 H
e + CH4(v24) => e + e + CH4^+			! fec * Bolsig+ CH4(v24) -> CH4^+
e + CH4(v13) => e + e + CH4^+			! fec * Bolsig+ CH4(v13) -> CH4^+
e + CH4(v24) => e + e + H + CH3^+			! fec * Bolsig+ CH4(v24) -> H CH3^+
e + CH4(v13) => e + e + H + CH3^+			! fec * Bolsig+ CH4(v13) -> H CH3^+
e + CH4(v24) => e + e + H2 + CH2^+			! fec * Bolsig+ CH4(v24) -> H2 CH2^+
e + CH4(v13) => e + e + H2 + CH2^+			! fec * Bolsig+ CH4(v13) -> H2 CH2^+
e + CH4(v24) => e + e + H2 + H + CH^+			! fec * Bolsig+ CH4(v24) -> H2 H CH^+
e + CH4(v13) => e + e + H2 + H + CH^+			! fec * Bolsig+ CH4(v13) -> H2 H CH^+
e + C2H6(v24) => e + C2H5 + H			! fec * Bolsig+ C2H6(v24) -> C2H5 H
e + C2H6(v13) => e + C2H5 + H			! fec * Bolsig+ C2H6(v13) -> C2H5 H
e + C2H6(v24) => e + C2H4 + H2			! fec * Bolsig+ C2H6(v24) -> C2H4 H2
e + C2H6(v13) => e + C2H4 + H2			! fec * Bolsig+ C2H6(v13) -> C2H4 H2
e + C2H6(v24) => e + C2H3 + H2 + H			! fec * Bolsig+ C2H6(v24) -> C2H3 H2 H
e + C2H6(v13) => e + C2H3 + H2 + H			! fec * Bolsig+ C2H6(v13) -> C2H3 H2 H
e + C2H6(v24) => e + C2H2 + H2 + H2			! fec * Bolsig+ C2H6(v24) -> C2H2 H2 H2
e + C2H6(v13) => e + C2H2 + H2 + H2			! fec * Bolsig+ C2H6(v13) -> C2H2 H2 H2
e + C2H6(v24) => e + CH4 + CH2			! fec * Bolsig+ C2H6(v24) -> CH4 CH2
e + C2H6(v13) => e + CH4 + CH2			! fec * Bolsig+ C2H6(v13) -> CH4 CH2
e + C2H6(v24) => e + CH3 + CH3			! fec * Bolsig+ C2H6(v24) -> CH3 CH3
e + C2H6(v13) => e + CH3 + CH3			! fec * Bolsig+ C2H6(v13) -> CH3 CH3
e + C2H4(v1) => e + C2H3 + H			! fec * Bolsig+ C2H4(v1) -> C2H3 H
e + C2H4(v2) => e + C2H3 + H			! fec * Bolsig+ C2H4(v2) -> C2H3 H
e + C2H4(v1) => e + C2H2 + H2			! fec * Bolsig+ C2H4(v1) -> C2H2 H2
e + C2H4(v2) => e + C2H2 + H2			! fec * Bolsig+ C2H4(v2) -> C2H2 H2
e + C2H4(v1) => e + C2H2 + H + H			! fec * Bolsig+ C2H4(v1) -> C2H2 H H
e + C2H4(v2) => e + C2H2 + H + H			! fec * Bolsig+ C2H4(v2) -> C2H2 H H
e + C2H4(v1) => e + CH3 + CH			! fec * Bolsig+ C2H4(v1) -> CH3 CH
e + C2H4(v2) => e + CH3 + CH			! fec * Bolsig+ C2H4(v2) -> CH3 CH
e + C2H4(v1) => e + CH2 + CH2			! fec * Bolsig+ C2H4(v1) -> CH2 CH2
e + C2H4(v2) => e + CH2 + CH2			! fec * Bolsig+ C2H4(v2) -> CH2 CH2
e + C2H2(v5) => e + CH + CH			! fec * Bolsig+ C2H2(v5) -> CH CH
e + C2H2(v2) => e + CH + CH			! fec * Bolsig+ C2H2(v2) -> CH CH
e + C2H2(v13) => e + CH + CH			! fec * Bolsig+ C2H2(v13) -> CH CH
e + C3H8(v1) => e + C3H7 + H			! fec * Bolsig+ C3H8(v1) -> C3H7 H
e + C3H8(v2) => e + C3H7 + H			! fec * Bolsig+ C3H8(v2) -> C3H7 H
e + C3H8(v1) => e + C3H6 + H2			! fec * Bolsig+ C3H8(v1) -> C3H6 H2
e + C3H8(v2) => e + C3H6 + H2			! fec * Bolsig+ C3H8(v2) -> C3H6 H2
e + C3H8(v1) => e + C3H4 + H2 + H2			! fec * Bolsig+ C3H8(v1) -> C3H4 H2 H2
e + C3H8(v2) => e + C3H4 + H2 + H2			! fec * Bolsig+ C3H8(v2) -> C3H4 H2 H2
e + C3H8(v1) => e + C2H6 + CH2			! fec * Bolsig+ C3H8(v1) -> C2H6 CH2
e + C3H8(v2) => e + C2H6 + CH2			! fec * Bolsig+ C3H8(v2) -> C2H6 CH2
e + C3H8(v1) => e + C2H5 + CH3			! fec * Bolsig+ C3H8(v1) -> C2H5 CH3
e + C3H8(v2) => e + C2H5 + CH3			! fec * Bolsig+ C3H8(v2) -> C2H5 CH3
e + C3H8(v1) => e + C2H4 + CH4			! fec * Bolsig+ C3H8(v1) -> C2H4 CH4
e + C3H8(v2) => e + C2H4 + CH4			! fec * Bolsig+ C3H8(v2) -> C2H4 CH4
e + C2H6(v24) => e + e + C2H6^+			! fec * Bolsig+ C2H6(v24) -> C2H6^+
e + C2H6(v13) => e + e + C2H6^+			! fec * Bolsig+ C2H6(v13) -> C2H6^+
e + C2H6(v24) => e + e + H + C2H5^+			! fec * Bolsig+ C2H6(v24) -> H C2H5^+
e + C2H6(v13) => e + e + H + C2H5^+			! fec * Bolsig+ C2H6(v13) -> H C2H5^+
e + C2H6(v24) => e + e + H2 + C2H4^+			! fec * Bolsig+ C2H6(v24) -> H2 C2H4^+
e + C2H6(v13) => e + e + H2 + C2H4^+			! fec * Bolsig+ C2H6(v13) -> H2 C2H4^+
e + C2H6(v24) => e + e + H2 + H + C2H3^+			! fec * Bolsig+ C2H6(v24) -> H2 H C2H3^+
e + C2H6(v13) => e + e + H2 + H + C2H3^+			! fec * Bolsig+ C2H6(v13) -> H2 H C2H3^+
e + C2H6(v24) => e + e + H2 + H2 + C2H2^+			! fec * Bolsig+ C2H6(v24) -> H2 H2 C2H2^+
e + C2H6(v13) => e + e + H2 + H2 + C2H2^+			! fec * Bolsig+ C2H6(v13) -> H2 H2 C2H2^+
e + C2H6(v24) => e + e + CH3 + CH3^+			! fec * Bolsig+ C2H6(v24) -> CH3 CH3^+
e + C2H6(v13) => e + e + CH3 + CH3^+			! fec * Bolsig+ C2H6(v13) -> CH3 CH3^+
e + C2H6(v24) => e + e + CH4 + CH2^+			! fec * Bolsig+ C2H6(v24) -> CH4 CH2^+
e + C2H6(v13) => e + e + CH4 + CH2^+			! fec * Bolsig+ C2H6(v13) -> CH4 CH2^+
e + C2H4(v1) => e + e + C2H4^+			! fec * Bolsig+ C2H4(v1) -> C2H4^+
e + C2H4(v2) => e + e + C2H4^+			! fec * Bolsig+ C2H4(v2) -> C2H4^+
e + C2H4(v1) => e + e + H + C2H3^+			! fec * Bolsig+ C2H4(v1) -> H C2H3^+
e + C2H4(v2) => e + e + H + C2H3^+			! fec * Bolsig+ C2H4(v2) -> H C2H3^+
e + C2H4(v1) => e + e + CH + CH3^+			! fec * Bolsig+ C2H4(v1) -> CH CH3^+
e + C2H4(v2) => e + e + CH + CH3^+			! fec * Bolsig+ C2H4(v2) -> CH CH3^+
e + C2H4(v1) => e + e + CH2 + CH2^+			! fec * Bolsig+ C2H4(v1) -> CH2 CH2^+
e + C2H4(v2) => e + e + CH2 + CH2^+			! fec * Bolsig+ C2H4(v2) -> CH2 CH2^+
e + C2H4(v1) => e + e + CH3 + CH^+			! fec * Bolsig+ C2H4(v1) -> CH3 CH^+
e + C2H4(v2) => e + e + CH3 + CH^+			! fec * Bolsig+ C2H4(v2) -> CH3 CH^+
e + C2H2(v5) => e + e + C2H2^+			! fec * Bolsig+ C2H2(v5) -> C2H2^+
e + C2H2(v2) => e + e + C2H2^+			! fec * Bolsig+ C2H2(v2) -> C2H2^+
e + C2H2(v13) => e + e + C2H2^+			! fec * Bolsig+ C2H2(v13) -> C2H2^+
e + C2H2(v5) => e + e + CH + CH^+			! fec * Bolsig+ C2H2(v5) -> CH CH^+
e + C2H2(v2) => e + e + CH + CH^+			! fec * Bolsig+ C2H2(v2) -> CH CH^+
e + C2H2(v13) => e + e + CH + CH^+			! fec * Bolsig+ C2H2(v13) -> CH CH^+
e + C3H8(v1) => e + e + C3H8^+			! fec * Bolsig+ C3H8(v1) -> C3H8^+
e + C3H8(v2) => e + e + C3H8^+			! fec * Bolsig+ C3H8(v2) -> C3H8^+
e + C3H8(v1) => e + e + H + C3H7^+			! fec * Bolsig+ C3H8(v1) -> H C3H7^+
e + C3H8(v2) => e + e + H + C3H7^+			! fec * Bolsig+ C3H8(v2) -> H C3H7^+
e + C3H8(v1) => e + e + H2 + C3H6^+			! fec * Bolsig+ C3H8(v1) -> H2 C3H6^+
e + C3H8(v2) => e + e + H2 + C3H6^+			! fec * Bolsig+ C3H8(v2) -> H2 C3H6^+
e + C3H8(v1) => e + e + H2 + H + C3H5^+			! fec * Bolsig+ C3H8(v1) -> H2 H C3H5^+
e + C3H8(v2) => e + e + H2 + H + C3H5^+			! fec * Bolsig+ C3H8(v2) -> H2 H C3H5^+
e + C3H8(v1) => e + e + H2 + H2 + C3H4^+			! fec * Bolsig+ C3H8(v1) -> H2 H2 C3H4^+
e + C3H8(v2) => e + e + H2 + H2 + C3H4^+			! fec * Bolsig+ C3H8(v2) -> H2 H2 C3H4^+
e + C3H8(v1) => e + e + CH3 + C2H5^+			! fec * Bolsig+ C3H8(v1) -> CH3 C2H5^+
e + C3H8(v2) => e + e + CH3 + C2H5^+			! fec * Bolsig+ C3H8(v2) -> CH3 C2H5^+
e + C3H8(v1) => e + e + CH4 + C2H4^+			! fec * Bolsig+ C3H8(v1) -> CH4 C2H4^+
e + C3H8(v2) => e + e + CH4 + C2H4^+			! fec * Bolsig+ C3H8(v2) -> CH4 C2H4^+
e + C3H8(v1) => e + e + C2H5 + CH3^+			! fec * Bolsig+ C3H8(v1) -> C2H5 CH3^+
e + C3H8(v2) => e + e + C2H5 + CH3^+			! fec * Bolsig+ C3H8(v2) -> C2H5 CH3^+
e + C3H8(v1) => e + e + C2H6 + CH2^+			! fec * Bolsig+ C3H8(v1) -> C2H6 CH2^+
e + C3H8(v2) => e + e + C2H6 + CH2^+			! fec * Bolsig+ C3H8(v2) -> C2H6 CH2^+
e + H2 => e + H + H			! fec * Bolsig+ H2 -> H H
e + H2 => e + e + H2^+			! fec * Bolsig+ H2 -> H2^+
#
# Ion recombination reaction
#
e + e + CH4^+ => e + CH4			! fir
e + e + CH3^+ => e + CH3			! fir
e + e + CH2^+ => e + CH2			! fir
e + e + CH^+ => e + CH			! fir
e + e + C2H6^+ => e + C2H6			! fir
e + e + C2H5^+ => e + C2H5			! fir
e + e + C2H4^+ => e + C2H4			! fir
e + e + C2H3^+ => e + C2H3			! fir
e + e + C2H2^+ => e + C2H2			! fir
e + e + C3H8^+ => e + C3H8			! fir
e + e + C3H7^+ => e + C3H7			! fir
e + e + C3H6^+ => e + C3H6			! fir
e + e + C3H5^+ => e + C3H5			! fir
e + e + C3H4^+ => e + C3H4			! fir
e + e + H^+ => e + H			! fir
e + e + H2^+ => e + H2			! fir
#
# Ion dissociative reaction
#
e + CH5^+ => CH3 + H + H			! fid * 2.57d-07 * (300./Tgas)**0.3
e + CH5^+ => CH2 + H2 + H			! fid * 6.61d-08 * (300./Tgas)**0.3
e + CH4^+ => CH3 + H			! fid * 1.18d-08 * (300./Tgas)**0.5
e + CH4^+ => CH2 + H + H			! fid * 2.42d-08 * (300./Tgas)**0.5
e + CH4^+ => CH + H2 + H			! fid * 1.41d-08 * (300./Tgas)**0.5
e + CH3^+ => CH2 + H			! fid * 2.25d-08 * (300./Tgas)**0.5
e + CH3^+ => CH + H2			! fid * 7.88d-09 * (300./Tgas)**0.5
e + CH2^+ => CH + H			! fid * 1.00d-08 * (300./Tgas)**0.5
e + C2H6^+ => C2H5 + H			! fid * 2.19d-08 * (300./Tgas)**0.71
e + C2H6^+ => C2H4 + H + H			! fid * 3.36d-08 * (300./Tgas)**0.71
e + C2H5^+ => C2H4 + H			! fid * 7.70d-09 * (300./Tgas)**0.71
e + C2H5^+ => C2H3 + H + H			! fid * 1.92d-08 * (300./Tgas)**0.71
e + C2H5^+ => C2H2 + H2 + H			! fid * 1.60d-08 * (300./Tgas)**0.71
e + C2H5^+ => C2H2 + H + H + H			! fid * 8.98d-09 * (300./Tgas)**0.71
e + C2H5^+ => CH3 + CH2			! fid * 9.62d-09 * (300./Tgas)**0.71
e + C2H4^+ => C2H3 + H			! fid * 8.29d-09 * (300./Tgas)**0.71
e + C2H4^+ => C2H2 + H + H			! fid * 3.43d-08 * (300./Tgas)**0.71
e + C2H3^+ => C2H2 + H			! fid * 1.34d-08 * (300./Tgas)**0.71
e + C2H2^+ => CH + CH			! fid * 4.87d-09 * (300./Tgas)**0.71
e + H2^+ => H + H			! fid * 3.17d21/(6.022d23 * Te**4.5)
e + H3^+ => H + H2			! fid * 3.17d21/(6.022d23 * Te**4.5)
#
# Ion-Neutral reaction
#
H2 + H2^+ => H + H3^+			! fin * 2.11d-09
CH2 + CH5^+ => CH4 + CH3^+			! fin * 9.60d-10
CH + CH5^+ => CH4 + CH2^+			! fin * 6.90d-10
C2H6 + CH5^+ => CH4 + H2 + C2H5^+			! fin * 2.25d-10
C2H4 + CH5^+ => CH4 + C2H5^+			! fin * 1.50d-9
C2H2 + CH5^+ => CH4 + C2H3^+			! fin * 1.60d-9
H + CH5^+ => H2 + CH4^+			! fin * 1.50d-10
CH4 + CH4^+ => CH3 + CH5^+			! fin * 1.50d-9
C2H6 + CH4^+ => CH4 + H2 + C2H4^+			! fin * 1.91d-9
C2H4 + CH4^+ => CH3 + C2H5^+			! fin * 4.23d-10
C2H4 + CH4^+ => CH4 + C2H4^+			! fin * 1.38d-9
C2H2 + CH4^+ => CH3 + C2H3^+			! fin * 1.23d-9
C2H2 + CH4^+ => CH4 + C2H2^+			! fin * 1.13d-9
H2 + CH4^+ => H + CH5^+			! fin * 3.30d-11
H + CH4^+ => H2 + CH3^+			! fin * 1.00d-11
CH4 + CH3^+ => CH3 + CH4^+			! fin * 1.36d-10
CH4 + CH3^+ => H2 + C2H5^+			! fin * 1.20d-9
CH2 + CH3^+ => H2 + C2H3^+			! fin * 9.90d-10
CH + CH3^+ => H2 + C2H2^+			! fin * 7.10d-10
C2H6 + CH3^+ => CH4 + C2H5^+			! fin * 1.48d-9
C2H4 + CH3^+ => CH4 + C2H3^+			! fin * 3.50d-10
C2H3 + CH3^+ => CH3 + C2H3^+			! fin * 3.00d-10
CH4 + CH2^+ => CH3 + CH3^+			! fin * 1.38d-10
CH4 + CH2^+ => H + C2H5^+			! fin * 3.60d-10
CH4 + CH2^+ => H2 + C2H4^+			! fin * 8.40d-10
CH4 + CH2^+ => H + H2 + C2H3^+			! fin * 2.31d-10
CH4 + CH2^+ => H2 + H2 + C2H2^+			! fin * 3.97d-10
H2 + CH2^+ => H + CH3^+			! fin * 1.60d-9
CH4 + CH^+ => H + C2H4^+			! fin * 6.50d-11
CH4 + CH^+ => H2 + C2H3^+			! fin * 1.09d-9
CH4 + CH^+ => H2 + H + C2H2^+			! fin * 1.43d-10
H2 + CH^+ => H + CH2^+			! fin * 1.20d-9
C2H4 + C2H6^+ => C2H6 + C2H4^+			! fin * 1.15d-9
C2H2 + C2H6^+ => C2H3 + C2H5^+			! fin * 2.47d-10
H + C2H6^+ => H2 + C2H5^+			! fin * 1.00d-10
H + C2H5^+ => H2 + C2H4^+			! fin * 1.00d-11
C2H3 + C2H4^+ => C2H2 + C2H5^+			! fin * 5.00d-10
C2H3 + C2H4^+ => C2H4 + C2H3^+			! fin * 5.00d-10
H + C2H4^+ => H2 + C2H3^+			! fin * 3.00d-10
C2H6 + C2H3^+ => C2H4 + C2H5^+			! fin * 2.91d-10
C2H4 + C2H3^+ => C2H2 + C2H5^+			! fin * 8.90d-10
C2H + C2H3^+ => C2H2 + C2H2^+			! fin * 3.30d-10
H + C2H3^+ => H2 + C2H2^+			! fin * 6.80d-11
CH4 + C2H2^+ => CH3 + C2H3^+			! fin * 4.10d-9
C2H6 + C2H2^+ => C2H3 + C2H5^+			! fin * 1.31d-10
C2H6 + C2H2^+ => C2H4 + C2H4^+			! fin * 2.48d-10
C2H4 + C2H2^+ => C2H2 + C2H4^+			! fin * 4.14d-10
C2H3 + C2H2^+ => C2H2 + C2H3^+			! fin * 3.30d-10
H2 + C2H2^+ => H + C2H3^+			! fin * 1.00d-11
CH4 + C2H^+ => CH3 + C2H2^+			! fin * 3.74d-10
CH4 + H3^+ => H2 + CH5^+			! fin * 2.40d-9
CH3 + H3^+ => H2 + CH4^+			! fin * 2.10d-9
CH2 + H3^+ => H2 + CH3^+			! fin * 1.70d-9
CH + H3^+ => H2 + CH2^+			! fin * 1.20d-9
C2H6 + H3^+ => H2 + H2 + C2H5^+			! fin * 2.40d-9
C2H5 + H3^+ => H2 + C2H6^+			! fin * 1.40d-9
C2H4 + H3^+ => H2 + C2H5^+			! fin * 1.15d-9
C2H4 + H3^+ => H2 + H2 + C2H3^+			! fin * 1.15d-9
C2H3 + H3^+ => H2 + C2H4^+			! fin * 2.00d-9
C2H + H3^+ => H2 + C2H2^+			! fin * 1.70d-9
C2H2 + H3^+ => H2 + C2H3^+			! fin * 3.50d-9
CH4 + H2^+ => H + CH5^+			! fin * 1.14d-10
CH4 + H2^+ => H2 + CH4^+			! fin * 1.40d-9
CH4 + H2^+ => H2 + H + CH3^+			! fin * 2.30d-9
CH2 + H2^+ => H + CH3^+			! fin * 1.00d-9
CH2 + H2^+ => H2 + CH2^+			! fin * 1.00d-9
CH + H2^+ => H + CH2^+			! fin * 7.10d-10
CH + H2^+ => H2 + CH^+			! fin * 7.10d-10
C2H6 + H2^+ => H2 + C2H6^+			! fin * 2.94d-10
C2H6 + H2^+ => H2 + H + C2H5^+			! fin * 1.37d-9
C2H6 + H2^+ => H2 + H2 + C2H4^+			! fin * 2.35d-9
C2H6 + H2^+ => H2 + H2 + H + C2H3^+			! fin * 6.86d-10
C2H6 + H2^+ => H2 + H2 + H2 + C2H2^+			! fin * 1.96d-10
C2H4 + H2^+ => H2 + C2H4^+			! fin * 2.21d-9
C2H4 + H2^+ => H2 + H + C2H3^+			! fin * 1.81d-9
C2H4 + H2^+ => H2 + H2 + C2H2^+			! fin * 8.82d-10
C2H2 + H2^+ => H + C2H3^+			! fin * 4.80d-10
C2H2 + H2^+ => H2 + C2H2^+			! fin * 4.82d-9
H + H2^+ => H3^+			! fin * 2.10d-9
H + H2^+ => H2 + H^+			! fin * 6.39d-10
CH4 + H^+ => H + CH4^+			! fin * 1.50d-9
CH4 + H^+ => H2 + CH3^+			! fin * 2.30d-9
CH3 + H^+ => H + CH3^+			! fin * 3.40d-9
CH2 + H^+ => H + CH2^+			! fin * 1.40d-9
CH2 + H^+ => H2 + CH^+			! fin * 1.40d-9
CH + H^+ => H + CH^+			! fin * 1.90d-9
C2H6 + H^+ => H2 + C2H5^+			! fin * 1.30d-9
C2H6 + H^+ => H2 + H + C2H4^+			! fin * 1.40d-9
C2H6 + H^+ => H2 + H2 + C2H3^+			! fin * 2.80d-9
C2H5 + H^+ => H2 + C2H4^+			! fin * 1.65d-9
C2H5 + H^+ => H2 + H + C2H3^+			! fin * 3.06d-9
C2H4 + H^+ => H + C2H4^+			! fin * 1.00d-9
C2H4 + H^+ => H2 + C2H3^+			! fin * 3.00d-9
C2H4 + H^+ => H2 + H + C2H2^+			! fin * 1.00d-9
C2H3 + H^+ => H + C2H3^+			! fin * 2.00d-9
C2H3 + H^+ => H2 + C2H2^+			! fin * 2.00d-9
C2H2 + H^+ => H + C2H2^+			! fin * 5.40d-10
#
# Neutral-Neutral reaction
#
CH4 + CH2 => CH3 + CH3			! f0 * f2 * 4.08d-18 * Tgas**2 * exp(-4163./Tgas)
CH4 + CH => C2H4 + H			! f0 * f3 * 9.97d-11
CH4 + C2H5 => C2H6 + CH3			! f0 * f5 * 2.51d-15 * (Tgas/298.)**4.14 * exp(-52.55/(R*Tgas))
CH4 + C2H3 => C2H4 + CH3			! f0 * f7 * 4.26d-15 * (Tgas/298.)**4.02 * exp(-22.86/(R*Tgas))
CH4 + C2H => C2H2 + CH3			! f0 * f9 * 3.01d-12 * exp(-2.08/(R*Tgas))
CH4 + C3H7 => C3H8 + CH3			! f0 * f11 * 3.54d-16 * (Tgas/298.)**4.02 * exp(-45.48/(R*Tgas))
CH4 + C3H5 => C3H6 + CH3			! f0 * f13 * 1.71d-14 * (Tgas/298.)**3.40 * exp(-97.28/(R*Tgas))
CH4 + H => CH3 + H2			! f0 * f18 * 9.86d-13 * (Tgas/298.)**3.00 * exp(-36.67/(R*Tgas))
CH4 + CH3 => H + C2H6			! f0 * f1 * 1.33d-10 * exp(-167.00/(R*Tgas))
CH4 + C4H9 => C4H9H + CH3			! f0 * f15 * 5.68d-17 * (Tgas/298.)**3.72 * exp(-33.42/(R*Tgas))
CH4 + CH2 => C2H6			! f0 * f2 * 1.90d-12
CH4 => CH3 + H			! f0 * 1.40d-6 * exp(-45700./Tgas)
CH3 + CH3 => C2H5 + H			! f1 * f1 * 5.00d-11 * exp(-56.54/(R*Tgas))
CH3 + CH3 => C2H6			! f1 * f1 * 1.87d-6 * Tgas**(-7.03) * exp(-1390.54/Tgas)
CH3 + CH2 => C2H4 + H			! f1 * f2 * 7.10d-11
CH3 + C2H6 => C2H5 + CH4			! f1 * f4 * 7.19d-15 * (Tgas/298.) ** 4.00 * exp(-34.67/(R*Tgas))
CH3 + C2H5 => C3H8			! f1 * f5 * 1.49d27 *  Tgas ** (-16.82) * exp(-6575.24/Tgas)
CH3 + C2H4 => C2H3 + CH4			! f1 * f6 * 2.18d-11 * exp(-46.56/(R*Tgas))
CH3 + C2H3 => C2H2 + CH4			! f1 * f7 * 1.5d-11 * exp(3.20/(R*Tgas))
CH3 + C2H3 => C3H6			! f1 * f7 * 3.8d-29
CH3 + C2H2 => C2H + CH4			! f1 * f8 * 3.0d-13 * exp(-72.34/(R*Tgas))
CH3 + C3H8 => C3H7 + CH4			! f1 * f10 * 1.50d-24 * Tgas**3.65 * exp(-3600.40/Tgas)
CH3 + C3H7 => C3H6 + CH4			! f1 * f11 * 3.07d-12 * (Tgas/298)**(-0.32)
CH3 + C3H6 => C3H5 + CH4			! f1 * f12 * 1.68d-15 * (Tgas/298)**3.50 * exp(-23.78/(R*Tgas))
CH3 + H2 => CH4 + H			! f1 * f17 * 2.52d-14 * (Tgas/298)**3.12 * exp(-36.42/(R*Tgas))
CH3 + H => CH2 + H2			! f1 * f18 * 1.00d-10 * exp(-63.19/(R*Tgas))
CH3 + H => CH4			! f1 * f18 * 1.44d-14 * Tgas**(-4.76) * exp(-1227.98/Tgas)
CH3 + C3H7 => C2H5 + C2H5			! f1 * f11 * 3.20d-11 * Tgas**(-0.32)
CH3 => CH2 + H			! f1 * 1.69d-8 * exp(-379./(R*Tgas))
CH3 => CH + H2			! f1 * 6.97d-9 * exp(-345./(R*Tgas))
CH3 + C2H5 => C2H6 + CH2			! f1 * f5 * 3.00d-44 * Tgas**9.10
CH2 + CH2 => C2H2 + H + H			! f2 * f2 * 3.32d-10 * exp(-45.98/(R*Tgas))
CH2 + C2H5 => C2H4 + CH3			! f2 * f5 * 3.01d-11
CH2 + C2H3 => C2H2 + CH3			! f2 * f7 * 3.01d-11
CH2 + C2H => C2H2 + CH			! f2 * f9 * 3.01d-11
CH2 + C3H8 => C3H7 + CH3			! f2 * f10 * 1.61d-15 * (Tgas/298.)**3.65 * exp(-29.93/(R*Tgas))
CH2 + C3H7 => C2H4 + C2H5			! f2 * f11 * 3.01d-11
CH2 + C3H7 => C3H6 + CH3			! f2 * f11 * 3.01d-11
CH2 + C3H6 => C3H5 + CH3			! f2 * f12 * 1.20d-12 * exp(-25.94/(R*Tgas))
CH2 + H2 => CH3 + H			! f2 * f17 * 8.30d-19 * Tgas**2.00 * exp(-3938.65/Tgas)
CH2 + H => CH + H2			! f2 * f18 * 1.00d-11 * exp(7.48/(R*Tgas))
CH2 => CH + H			! f2 * 6.64d-9 * exp(-348./(R*Tgas))
CH2 + CH2 => C2H2 + H2			! f2 * f2 * 2.66d-9 * exp(-6011.07/Tgas)
CH2 + H => CH3			! f2 * f18 * 9.96d-10
CH + C2H6 => C3H6 + H			! f3 * f4 * 3.00d-11
CH + C2H6 => C3H7			! f3 * f4 * 1.14d-29
CH + H2 => CH2 + H			! f3 * f17 * 1.79d-10 * exp(-1565.17/Tgas)
CH + CH3 => C2H3 + H			! f3 * f1 * 4.98d-11
CH + CH2 => C2H2 + H			! f3 * f2 * 6.64d-11
CH + H2 => CH3			! f3 * f17 * 3.29d-12 * Tgas**0.43 * exp(186.21/Tgas)
CH + C2H3 => CH2 + C2H2			! f3 * f7 * 8.30d-11
C2H6 + C2H3 => C2H5 + C2H4			! f4 * f7 * 1.46d-13 * (Tgas/298.)**3.30 * exp(-43.90/(R*Tgas))
C2H6 + C3H7 => C3H8 + C2H5			! f4 * f11 * 1.19d-15 * (Tgas/298.)**3.82 * exp(-37.83/(R*Tgas))
C2H6 + C3H5 => C3H6 + C2H5			! f4 * f13 * 5.71d-14 * (Tgas/298.)**3.30 * exp(-83.06/(R*Tgas))
C2H6 + H => C2H5 + H2			! f4 * f18 * 1.23d-11 * (Tgas/298.)**1.50 * exp(-31.01/(R*Tgas))
C2H6 + H => CH4 + CH3			! f4 * f18 * 8.97d-20 * exp(-48.64/(R*Tgas))
C2H6 => CH3 + CH3			! f4 * 1.80d21 * Tgas**(-1.24) * exp(-45700./Tgas)
C2H6 + C4H9 => C4H9H + C2H5			! f4 * f15 * 8.30d-13 * exp(-62.77/(R*Tgas))
C2H6 + CH => C2H4 + CH3			! f4 * f3 * 1.79d-10 * exp(132.36/Tgas)
C2H6 + CH2 => C2H5 + CH3			! f4 * f2 * 9.00d-33 * Tgas**6.43
C2H5 + C2H5 => C2H6 + C2H4			! f5 * f5 * 2.41d-12
C2H5 + C2H4 => C2H6 + C2H3			! f5 * f6 * 5.83d-14 * (Tgas/298.)**3.13 * exp(-75.33/(R*Tgas))
C2H5 + C2H2 => C2H6 + C2H			! f5 * f8 * 4.50d-13 * exp(-98.11/(R*Tgas))
C2H5 + C2H => C2H4 + C2H2			! f5 * f9 * 3.01d-12
C2H5 + C3H8 => C2H6 + C3H7			! f5 * f10 * 1.61d-15 * (Tgas/298.)**3.65 * exp(-38.25/(R*Tgas))
C2H5 + C3H7 => C3H8 + C2H4			! f5 * f11 * 1.91d-12
C2H5 + C3H7 => C3H6 + C2H6			! f5 * f11 * 2.41d-12
C2H5 + C3H6 => C3H5 + C2H6			! f5 * f12 * 1.69d-15 * (Tgas/298.)**3.50 * exp(-35.34/(R*Tgas))
C2H5 + H2 => C2H6 + H			! f5 * f17 * 4.12d-15 * (Tgas/298.)**3.60 * exp(-27.77/(R*Tgas))
C2H5 + H => CH3 + CH3			! f5 * f18 * 5.99d-11
C2H5 + H => C2H4 + H2			! f5 * f18 * 3.32d-12
C2H5 + H => C2H6			! f5 * f18 * 8.65d-7 * Tgas**(-0.99) * exp(-795.17/Tgas)
C2H5 => C2H4 + H			! f5 * 4.08d12 * (Tgas/298.)**1.04 * exp(-154./(R*Tgas))
C2H5 + C2H5 => C4H9H			! f5 * f5 * 9.55d-12
C2H5 + C4H9 => C2H4 + C4H9H			! f5 * f15 * 1.40d-12
C2H5 + C2H3 => C2H4 + C2H4			! f5 * f7 * 4.42d-11
C2H4 + H => C2H3 + H2			! f6 * f18 * 9.00d-10 * exp(-62.36/(R*Tgas))
C2H4 + H => C2H5			! f6 * f18 * 9.68d-12 * (Tgas/298.)**1.28 * exp(-5.40/(R*Tgas))
C2H4 + H2 => C2H5 + H			! f6 * f17 * 9.55d-12
C2H4 => C2H3 + H			! f6 * 4.30d-7 * exp(-404./(R*Tgas))
C2H4 + C3H6 => C3H5 + C2H5			! f6 * f12 * 9.60d-11 * exp(-216./(R*Tgas))
C2H4 + C2H2 => C2H3 + C2H3			! f6 * f8 * 4.00d-11 * exp(-286./(R*Tgas))
C2H4 + C3H6 => C2H3 + C3H7			! f6 * f12 * 1.00d-10 * exp(-316./(R*Tgas))
C2H4 + C2H4 => C2H5 + C2H3			! f6 * f6 * 8.00d-10 * exp(-299./(R*Tgas))
C2H4 + CH3 => C3H7			! f6 * f1 * 4.23d-18 * Tgas**1.60 * exp(-2868.65/Tgas)