ELEMENTS
e C H
END

SPECIES
e C2H4(v2) C3H7^+ C2H5^+ C3H6^+ C2H C2H3^+ CH C2H2(v2) CH4^+ H2 H3^+ H C3H8^+ C3H6(v) CH3^+ C2H2^+ C3H7 C3H4^+ C3H5 C2H2 CH4(v24) CH3 C3H8(v2) CH4(v13) C3H5^+ H2^+ CH2 C2H3 H^+ C4H9
C3H8(v1) C2H4(v1) C2H5 C3H4 C2H^+ C3H6 C2H2(v13) C2H6(v24) C2H6^+ C2H6(v13) C2H4 C2H6 CH^+ C3H8 C2H4^+ CH5^+ C5H12 C4H9H CH2^+ CH4 C2H2(v5)
END

BOLSIG
C2H4(v2) CH C2H2(v2) H2 C3H7 C3H5 C2H2 CH4(v24) CH3 C3H8(v2) CH4(v13) CH2 C2H3 C3H8(v1) C2H4(v1) C2H5 C3H4 C3H6 C2H2(v13) C2H6(v24) C2H6(v13) C2H4 C2H6 C3H8 CH4 C2H2(v5)
END

REACTIONS
#
# Kinetic parameters
#
$ double precision, parameter :: R = 8.314d-3
$ double precision, parameter :: f0= 1.000d-3
$ double precision, parameter :: f1= 1.000d-3
$ double precision, parameter :: f2= 1.000d-3
$ double precision, parameter :: f3= 1.000d-3
$ double precision, parameter :: f4= 1.000d-3
$ double precision, parameter :: f5= 1.000d-3
$ double precision, parameter :: f6= 1.000d-3
$ double precision, parameter :: f7= 1.000d-3
$ double precision, parameter :: f8= 1.000d-3
$ double precision, parameter :: f9= 1.000d-3
$ double precision, parameter :: f10= 1.000d-3
$ double precision, parameter :: f11= 1.000d-3
$ double precision, parameter :: f12= 1.000d-3
$ double precision, parameter :: f13= 1.000d-3
$ double precision, parameter :: f14= 1.000d-3
$ double precision, parameter :: f15= 1.000d-3
$ double precision, parameter :: f16= 1.000d-3
$ double precision, parameter :: f17= 1.000d-3
$ double precision, parameter :: f18= 1.000d-3
$ double precision, parameter :: f19= 1.000d-3
$ double precision, parameter :: f20= 1.000d-3
$ double precision, parameter :: f21= 1.000d-3
$ double precision, parameter :: f22= 1.000d-3
$ double precision, parameter :: f23= 1.000d-3
$ double precision, parameter :: f24= 1.000d-3
$ double precision, parameter :: f25= 1.000d-3
$ double precision, parameter :: f26= 1.000d-3
$ double precision, parameter :: f27= 1.000d-3
$ double precision, parameter :: f28= 1.000d-3
$ double precision, parameter :: f29= 1.000d-3
$ double precision, parameter :: f30= 1.000d-3
$ double precision, parameter :: f31= 1.000d-3
$ double precision, parameter :: f32= 1.000d-3
$ double precision, parameter :: f33= 1.000d-3
$ double precision, parameter :: f34= 1.000d-3
$ double precision, parameter :: f35= 1.000d-3
$ double precision, parameter :: f36= 1.000d-3
$ double precision, parameter :: f37= 1.000d-3
$ double precision, parameter :: f38= 1.000d-3
$ double precision, parameter :: f39= 1.000d-3
$ double precision, parameter :: f40= 1.000d-3
$ double precision, parameter :: f41= 1.000d-3
$ double precision, parameter :: f42= 1.000d-3
$ double precision, parameter :: f43= 1.000d-3
$ double precision, parameter :: f44= 1.000d-3
$ double precision, parameter :: f45= 1.000d-3
$ double precision, parameter :: f46= 1.000d-3
$ double precision, parameter :: f47= 1.000d-3
$ double precision, parameter :: f48= 1.000d-3
$ double precision, parameter :: f49= 1.000d-3
$ double precision, parameter :: f50= 1.000d-3
$ double precision, parameter :: f51= 1.000d-3
$ double precision, parameter :: f52= 1.000d-3
$ double precision, parameter :: f53= 1.000d-3
$ double precision, parameter :: f54= 1.000d-3
$ double precision, parameter :: f55= 1.000d-3
$ double precision, parameter :: f56= 1.000d-3
$ double precision, parameter :: f57= 1.000d-3
$ double precision, parameter :: f58= 1.000d-3
$ double precision, parameter :: f59= 1.000d-3
$ double precision, parameter :: f60= 1.000d-3
$ double precision, parameter :: f61= 1.000d-3
$ double precision, parameter :: f62= 1.000d-3
$ double precision, parameter :: f63= 1.000d-3
$ double precision, parameter :: f64= 1.000d-3
$ double precision, parameter :: f65= 1.000d-3
$ double precision, parameter :: f66= 1.000d-3
$ double precision, parameter :: f67= 1.000d-3
$ double precision, parameter :: f68= 1.000d-3
$ double precision, parameter :: f69= 1.000d-3
$ double precision, parameter :: f70= 1.000d-3
$ double precision, parameter :: f71= 1.000d-3
$ double precision, parameter :: f72= 1.000d-3
$ double precision, parameter :: f73= 1.000d-3
$ double precision, parameter :: f74= 1.000d-3
$ double precision, parameter :: f75= 1.000d-3
$ double precision, parameter :: f76= 1.000d-3
$ double precision, parameter :: f77= 1.000d-3
$ double precision, parameter :: f78= 1.000d-3
$ double precision, parameter :: f79= 1.000d-3
$ double precision, parameter :: f80= 1.000d-3
$ double precision, parameter :: f81= 1.000d-3
$ double precision, parameter :: f82= 1.000d-3
$ double precision, parameter :: f83= 1.000d-3
$ double precision, parameter :: f84= 1.000d-3
$ double precision, parameter :: f85= 1.000d-3
$ double precision, parameter :: f86= 1.000d-3
$ double precision, parameter :: f87= 1.000d-3
$ double precision, parameter :: f88= 1.000d-3
$ double precision, parameter :: f89= 1.000d-3
$ double precision, parameter :: f90= 1.000d-3
$ double precision, parameter :: f91= 1.000d-3
$ double precision, parameter :: f92= 1.000d-3
$ double precision, parameter :: f93= 1.000d-3
$ double precision, parameter :: f94= 1.000d-3
$ double precision, parameter :: f95= 1.000d-3
$ double precision, parameter :: f96= 1.000d-3
$ double precision, parameter :: f97= 1.000d-3
$ double precision, parameter :: f98= 1.000d-3
$ double precision, parameter :: f99= 1.000d-3
$ double precision, parameter :: f100= 1.000d-3
$ double precision, parameter :: f101= 1.000d-3
$ double precision, parameter :: f102= 1.000d-3
$ double precision, parameter :: f103= 1.000d-3
$ double precision, parameter :: f104= 1.000d-3
$ double precision, parameter :: f105= 1.000d-3
$ double precision, parameter :: f106= 1.000d-3
$ double precision, parameter :: f107= 1.000d-3
$ double precision, parameter :: f108= 1.000d-3
$ double precision, parameter :: f109= 1.000d-3
$ double precision, parameter :: f110= 1.000d-3
$ double precision, parameter :: f111= 1.000d-3
$ double precision, parameter :: f112= 1.000d-3
$ double precision, parameter :: f113= 1.000d-3
$ double precision, parameter :: f114= 1.000d-3
$ double precision, parameter :: f115= 1.000d-3
$ double precision, parameter :: f116= 1.000d-3
$ double precision, parameter :: f117= 1.000d-3
$ double precision, parameter :: f118= 1.000d-3
$ double precision, parameter :: f119= 1.000d-3
$ double precision, parameter :: f120= 1.000d-3
$ double precision, parameter :: f121= 1.000d-3
$ double precision, parameter :: f122= 1.000d-3
$ double precision, parameter :: f123= 1.000d-3
$ double precision, parameter :: f124= 1.000d-3
$ double precision, parameter :: f125= 1.000d-3
$ double precision, parameter :: f126= 1.000d-3
$ double precision, parameter :: f127= 1.000d-3
$ double precision, parameter :: f128= 1.000d-3
$ double precision, parameter :: f129= 1.000d-3
$ double precision, parameter :: f130= 1.000d-3
$ double precision, parameter :: f131= 1.000d-3
$ double precision, parameter :: f132= 1.000d-3
$ double precision, parameter :: f133= 1.000d-3
$ double precision, parameter :: f134= 1.000d-3
$ double precision, parameter :: f135= 1.000d-3
$ double precision, parameter :: f136= 1.000d-3
$ double precision, parameter :: f137= 1.000d-3
$ double precision, parameter :: f138= 1.000d-3
$ double precision, parameter :: f139= 1.000d-3
$ double precision, parameter :: f140= 1.000d-3
$ double precision, parameter :: f141= 1.000d-3
$ double precision, parameter :: f142= 1.000d-3
$ double precision, parameter :: f143= 1.000d-3
$ double precision, parameter :: f144= 1.000d-3
$ double precision, parameter :: f145= 1.000d-3
$ double precision, parameter :: f146= 1.000d-3
$ double precision, parameter :: f147= 1.000d-3
$ double precision, parameter :: f148= 1.000d-3
$ double precision, parameter :: f149= 1.000d-3
$ double precision, parameter :: f150= 1.000d-3
$ double precision, parameter :: f151= 1.000d-3
$ double precision, parameter :: f152= 1.000d-3
$ double precision, parameter :: f153= 1.000d-3
$ double precision, parameter :: f154= 1.000d-3
$ double precision, parameter :: f155= 1.000d-3
$ double precision, parameter :: f156= 1.000d-3
$ double precision, parameter :: f157= 1.000d-3
$ double precision, parameter :: f158= 1.000d-3
$ double precision, parameter :: f159= 1.000d-3
$ double precision, parameter :: f160= 1.000d-3
$ double precision, parameter :: f161= 1.000d-3
$ double precision, parameter :: f162= 1.000d-3
$ double precision, parameter :: f163= 1.000d-3
$ double precision, parameter :: f164= 1.000d-3
$ double precision, parameter :: f165= 1.000d-3
$ double precision, parameter :: f166= 1.000d-3
$ double precision, parameter :: f167= 1.000d-3
$ double precision, parameter :: f168= 1.000d-3
$ double precision, parameter :: f169= 1.000d-3
$ double precision, parameter :: f170= 1.000d-3
$ double precision, parameter :: f171= 1.000d-3
$ double precision, parameter :: f172= 1.000d-3
$ double precision, parameter :: f173= 1.000d-3
$ double precision, parameter :: f174= 1.000d-3
$ double precision, parameter :: f175= 1.000d-3
$ double precision, parameter :: f176= 1.000d-3
$ double precision, parameter :: f177= 1.000d-3
$ double precision, parameter :: f178= 1.000d-3
$ double precision, parameter :: f179= 1.000d-3
$ double precision, parameter :: f180= 1.000d-3
$ double precision, parameter :: f181= 1.000d-3
$ double precision, parameter :: f182= 1.000d-3
$ double precision, parameter :: f183= 1.000d-3
$ double precision, parameter :: f184= 1.000d-3
$ double precision, parameter :: f185= 1.000d-3
$ double precision, parameter :: f186= 1.000d-3
$ double precision, parameter :: f187= 1.000d-3
$ double precision, parameter :: f188= 1.000d-3
$ double precision, parameter :: f189= 1.000d-3
$ double precision, parameter :: f190= 1.000d-3
$ double precision, parameter :: f191= 1.000d-3
$ double precision, parameter :: f192= 1.000d-3
$ double precision, parameter :: f193= 1.000d-3
$ double precision, parameter :: f194= 1.000d-3
$ double precision, parameter :: f195= 1.000d-3
$ double precision, parameter :: f196= 1.000d-3
$ double precision, parameter :: f197= 1.000d-3
$ double precision, parameter :: f198= 1.000d-3
$ double precision, parameter :: f199= 1.000d-3
$ double precision, parameter :: f200= 1.000d-3
$ double precision, parameter :: f201= 1.000d-3
$ double precision, parameter :: f202= 1.000d-3
$ double precision, parameter :: f203= 1.000d-3
$ double precision, parameter :: f204= 1.000d-3
$ double precision, parameter :: f205= 1.000d-3
$ double precision, parameter :: f206= 1.000d-3
$ double precision, parameter :: f207= 1.000d-3
$ double precision, parameter :: f208= 1.000d-3
$ double precision, parameter :: f209= 1.000d-3
$ double precision, parameter :: f210= 1.000d-3
$ double precision, parameter :: f211= 1.000d-3
$ double precision, parameter :: f212= 1.000d-3
$ double precision, parameter :: f213= 1.000d-3
$ double precision, parameter :: f214= 1.000d-3
$ double precision, parameter :: f215= 1.000d-3
$ double precision, parameter :: f216= 1.000d-3
$ double precision, parameter :: f217= 1.000d-3
$ double precision, parameter :: f218= 1.000d-3
$ double precision, parameter :: f219= 1.000d-3
$ double precision, parameter :: f220= 1.000d-3
$ double precision, parameter :: f221= 1.000d-3
$ double precision, parameter :: f222= 1.000d-3
$ double precision, parameter :: f223= 1.000d-3
$ double precision, parameter :: f224= 1.000d-3
$ double precision, parameter :: f225= 1.000d-3
$ double precision, parameter :: f226= 1.000d-3
$ double precision, parameter :: f227= 1.000d-3
$ double precision, parameter :: f228= 1.000d-3
$ double precision, parameter :: f229= 1.000d-3
$ double precision, parameter :: f230= 1.000d-3
$ double precision, parameter :: f231= 1.000d-3
$ double precision, parameter :: f232= 1.000d-3
$ double precision, parameter :: f233= 1.000d-3
$ double precision, parameter :: f234= 1.000d-3
$ double precision, parameter :: f235= 1.000d-3
$ double precision, parameter :: f236= 1.000d-3
$ double precision, parameter :: f237= 1.000d-3
$ double precision, parameter :: f238= 1.000d-3
$ double precision, parameter :: f239= 1.000d-3
$ double precision, parameter :: f240= 1.000d-3
$ double precision, parameter :: f241= 1.000d-3
$ double precision, parameter :: f242= 1.000d-3
$ double precision, parameter :: f243= 1.000d-3
$ double precision, parameter :: f244= 1.000d-3
$ double precision, parameter :: f245= 1.000d-3
$ double precision, parameter :: f246= 1.000d-3
$ double precision, parameter :: f247= 1.000d-3
$ double precision, parameter :: f248= 1.000d-3
$ double precision, parameter :: f249= 1.000d-3
$ double precision, parameter :: f250= 1.000d-3
$ double precision, parameter :: f251= 1.000d-3
$ double precision, parameter :: f252= 1.000d-3
$ double precision, parameter :: f253= 1.000d-3
$ double precision, parameter :: f254= 1.000d-3
$ double precision, parameter :: f255= 1.000d-3
$ double precision, parameter :: f256= 1.000d-3
$ double precision, parameter :: f257= 1.000d-3
$ double precision, parameter :: f258= 1.000d-3
$ double precision, parameter :: f259= 1.000d-3
$ double precision, parameter :: f260= 1.000d-3
$ double precision, parameter :: f261= 1.000d-3
$ double precision, parameter :: f262= 1.000d-3
$ double precision, parameter :: f263= 1.000d-3
$ double precision, parameter :: f264= 1.000d-3
$ double precision, parameter :: f265= 1.000d-3
$ double precision, parameter :: f266= 1.000d-3
$ double precision, parameter :: f267= 1.000d-3
$ double precision, parameter :: f268= 1.000d-3
$ double precision, parameter :: f269= 1.000d-3
$ double precision, parameter :: f270= 1.000d-3
$ double precision, parameter :: f271= 1.000d-3
$ double precision, parameter :: f272= 1.000d-3
$ double precision, parameter :: f273= 1.000d-3
$ double precision, parameter :: f274= 1.000d-3
$ double precision, parameter :: f275= 1.000d-3
$ double precision, parameter :: f276= 1.000d-3
$ double precision, parameter :: f277= 1.000d-3
$ double precision, parameter :: f278= 1.000d-3
$ double precision, parameter :: f279= 1.000d-3
$ double precision, parameter :: f280= 1.000d-3
$ double precision, parameter :: f281= 1.000d-3
$ double precision, parameter :: f282= 1.000d-3
$ double precision, parameter :: f283= 1.000d-3
$ double precision, parameter :: f284= 1.000d-3
$ double precision, parameter :: f285= 1.000d-3
$ double precision, parameter :: f286= 1.000d-3
$ double precision, parameter :: f287= 1.000d-3
$ double precision, parameter :: f288= 1.000d-3
$ double precision, parameter :: f289= 1.000d-3
$ double precision, parameter :: f290= 1.000d-3
$ double precision, parameter :: f291= 1.000d-3
$ double precision, parameter :: f292= 1.000d-3
$ double precision, parameter :: f293= 1.000d-3
$ double precision, parameter :: f294= 1.000d-3
$ double precision, parameter :: f295= 1.000d-3
$ double precision, parameter :: f296= 1.000d-3
$ double precision, parameter :: f297= 1.000d-3
$ double precision, parameter :: f298= 1.000d-3
$ double precision, parameter :: f299= 1.000d-3
$ double precision, parameter :: f300= 1.000d-3
$ double precision, parameter :: f301= 1.000d-3
$ double precision, parameter :: f302= 1.000d-3
$ double precision, parameter :: f303= 1.000d-3
$ double precision, parameter :: f304= 1.000d-3
$ double precision, parameter :: f305= 1.000d-3
$ double precision, parameter :: f306= 1.000d-3
$ double precision, parameter :: f307= 1.000d-3
$ double precision, parameter :: f308= 1.000d-3
$ double precision, parameter :: f309= 1.000d-3
$ double precision, parameter :: f310= 1.000d-3
$ double precision, parameter :: f311= 1.000d-3
$ double precision, parameter :: f312= 1.000d-3
$ double precision, parameter :: f313= 1.000d-3
$ double precision, parameter :: f314= 1.000d-3
$ double precision, parameter :: f315= 1.000d-3
$ double precision, parameter :: f316= 1.000d-3
$ double precision, parameter :: f317= 1.000d-3
$ double precision, parameter :: f318= 1.000d-3
$ double precision, parameter :: f319= 1.000d-3
$ double precision, parameter :: f320= 1.000d-3
$ double precision, parameter :: f321= 1.000d-3
$ double precision, parameter :: f322= 1.000d-3
$ double precision, parameter :: f323= 1.000d-3
$ double precision, parameter :: f324= 1.000d-3
$ double precision, parameter :: f325= 1.000d-3
$ double precision, parameter :: f326= 1.000d-3
$ double precision, parameter :: f327= 1.000d-3
$ double precision, parameter :: f328= 1.000d-3
$ double precision, parameter :: f329= 1.000d-3
$ double precision, parameter :: f330= 1.000d-3
$ double precision, parameter :: f331= 1.000d-3
$ double precision, parameter :: f332= 1.000d-3
$ double precision, parameter :: f333= 1.000d-3
$ double precision, parameter :: f334= 1.000d-3
$ double precision, parameter :: f335= 1.000d-3
$ double precision, parameter :: f336= 1.000d-3
$ double precision, parameter :: f337= 1.000d-3
$ double precision, parameter :: f338= 1.000d-3
$ double precision, parameter :: f339= 1.000d-3
$ double precision, parameter :: f340= 1.000d-3
$ double precision, parameter :: f341= 1.000d-3
$ double precision, parameter :: f342= 1.000d-3
$ double precision, parameter :: f343= 1.000d-3
$ double precision, parameter :: f344= 1.000d-3
$ double precision, parameter :: f345= 1.000d-3
$ double precision, parameter :: f346= 1.000d-3
$ double precision, parameter :: f347= 1.000d-3
$ double precision, parameter :: f348= 1.000d-3
$ double precision, parameter :: f349= 1.000d-3
$ double precision, parameter :: f350= 1.000d-3
$ double precision, parameter :: f351= 1.000d-3
$ double precision, parameter :: f352= 1.000d-3
$ double precision, parameter :: f353= 1.000d-3
$ double precision, parameter :: f354= 1.000d-3
$ double precision, parameter :: f355= 1.000d-3
$ double precision, parameter :: f356= 1.000d-3
$ double precision, parameter :: f357= 1.000d-3
$ double precision, parameter :: f358= 1.000d-3
$ double precision, parameter :: f359= 1.000d-3
$ double precision, parameter :: f360= 1.000d-3
$ double precision, parameter :: f361= 1.000d-3
$ double precision, parameter :: f362= 1.000d-3
$ double precision, parameter :: f363= 1.000d-3
$ double precision, parameter :: f364= 1.000d-3
$ double precision, parameter :: f365= 1.000d-3
$ double precision, parameter :: f366= 1.000d-3
$ double precision, parameter :: f367= 1.000d-3
$ double precision, parameter :: f368= 1.000d-3
$ double precision, parameter :: f369= 1.000d-3
$ double precision, parameter :: f370= 1.000d-3
$ double precision, parameter :: f371= 1.000d-3
$ double precision, parameter :: f372= 1.000d-3
$ double precision, parameter :: f373= 1.000d-3
$ double precision, parameter :: f374= 1.000d-3
$ double precision, parameter :: f375= 1.000d-3
$ double precision, parameter :: f376= 1.000d-3
$ double precision, parameter :: f377= 1.000d-3
$ double precision, parameter :: f378= 1.000d-3
$ double precision, parameter :: f379= 1.000d-3
$ double precision, parameter :: f380= 1.000d-3
$ double precision, parameter :: f381= 1.000d-3
$ double precision, parameter :: f382= 1.000d-3
$ double precision, parameter :: f383= 1.000d-3
$ double precision, parameter :: f384= 1.000d-3
$ double precision, parameter :: f385= 1.000d-3
$ double precision, parameter :: f386= 1.000d-3
$ double precision, parameter :: f387= 1.000d-3
$ double precision, parameter :: f388= 1.000d-3
$ double precision, parameter :: f389= 1.000d-3
$ double precision, parameter :: f390= 1.000d-3
$ double precision, parameter :: f391= 1.000d-3
$ double precision, parameter :: f392= 1.000d-3
$ double precision, parameter :: f393= 1.000d-3
$ double precision, parameter :: f394= 1.000d-3
$ double precision, parameter :: f395= 1.000d-3
$ double precision, parameter :: f396= 1.000d-3
$ double precision, parameter :: f397= 1.000d-3
$ double precision, parameter :: f398= 1.000d-3
$ double precision, parameter :: f399= 1.000d-3
$ double precision, parameter :: f400= 1.000d-3
$ double precision, parameter :: f401= 1.000d-3
$ double precision, parameter :: f402= 1.000d-3
$ double precision, parameter :: f403= 1.000d-3
$ double precision, parameter :: f404= 1.000d-3
$ double precision, parameter :: f405= 1.000d-3
$ double precision, parameter :: f406= 1.000d-3
$ double precision, parameter :: f407= 1.000d-3
$ double precision, parameter :: f408= 1.000d-3
$ double precision, parameter :: f409= 1.000d-3
$ double precision, parameter :: f410= 1.000d-3
$ double precision, parameter :: f411= 1.000d-3
$ double precision, parameter :: f412= 1.000d-3
$ double precision, parameter :: f413= 1.000d-3
$ double precision, parameter :: f414= 1.000d-3
$ double precision, parameter :: f415= 1.000d-3
$ double precision, parameter :: f416= 1.000d-3
$ double precision, parameter :: f417= 1.000d-3
$ double precision, parameter :: f418= 1.000d-3
$ double precision, parameter :: f419= 1.000d-3
$ double precision, parameter :: f420= 1.000d-3
$ double precision, parameter :: f421= 1.000d-3
$ double precision, parameter :: f422= 1.000d-3
$ double precision, parameter :: f423= 1.000d-3
$ double precision, parameter :: f424= 1.000d-3
$ double precision, parameter :: f425= 1.000d-3
$ double precision, parameter :: f426= 1.000d-3
$ double precision, parameter :: f427= 1.000d-3
$ double precision, parameter :: f428= 1.000d-3
$ double precision, parameter :: f429= 1.000d-3
$ double precision, parameter :: f430= 1.000d-3
$ double precision, parameter :: f431= 1.000d-3
$ double precision, parameter :: f432= 1.000d-3
$ double precision, parameter :: f433= 1.000d-3
$ double precision, parameter :: f434= 1.000d-3
$ double precision, parameter :: f435= 1.000d-3
$ double precision, parameter :: f436= 1.000d-3
$ double precision, parameter :: f437= 1.000d-3
$ double precision, parameter :: f438= 1.000d-3
$ double precision, parameter :: f439= 1.000d-3
$ double precision, parameter :: f440= 1.000d-3
$ double precision, parameter :: f441= 1.000d-3
$ double precision, parameter :: f442= 1.000d-3
$ double precision, parameter :: f443= 1.000d-3
$ double precision, parameter :: f444= 1.000d-3
$ double precision, parameter :: f445= 1.000d-3
$ double precision, parameter :: f446= 1.000d-3
$ double precision, parameter :: f447= 1.000d-3
$ double precision, parameter :: f448= 1.000d-3
$ double precision, parameter :: f449= 1.000d-3
$ double precision, parameter :: f450= 1.000d-3
$ double precision, parameter :: f451= 1.000d-3
$ double precision, parameter :: f452= 1.000d-3
$ double precision, parameter :: f453= 1.000d-3
$ double precision, parameter :: f454= 1.000d-3
$ double precision, parameter :: f455= 1.000d-3
$ double precision, parameter :: f456= 1.000d-3
$ double precision, parameter :: f457= 1.000d-3
$ double precision, parameter :: f458= 1.000d-3
$ double precision, parameter :: f459= 1.000d-3
$ double precision, parameter :: f460= 1.000d-3
$ double precision, parameter :: f461= 1.000d-3
$ double precision, parameter :: f462= 1.000d-3
$ double precision, parameter :: f463= 1.000d-3
$ double precision, parameter :: f464= 1.000d-3
$ double precision, parameter :: f465= 1.000d-3
$ double precision, parameter :: f466= 1.000d-3
$ double precision, parameter :: f467= 1.000d-3
$ double precision, parameter :: f468= 1.000d-3
$ double precision, parameter :: f469= 1.000d-3
$ double precision, parameter :: f470= 1.000d-3
$ double precision, parameter :: f471= 1.000d-3
$ double precision, parameter :: f472= 1.000d-3
$ double precision, parameter :: f473= 1.000d-3
$ double precision, parameter :: f474= 1.000d-3
$ double precision, parameter :: f475= 1.000d-3
$ double precision, parameter :: f476= 1.000d-3
$ double precision, parameter :: f477= 1.000d-3
$ double precision, parameter :: f478= 1.000d-3
$ double precision, parameter :: f479= 1.000d-3
$ double precision, parameter :: f480= 1.000d-3
$ double precision, parameter :: f481= 1.000d-3
$ double precision, parameter :: f482= 1.000d-3
$ double precision, parameter :: f483= 1.000d-3
$ double precision, parameter :: f484= 1.000d-3
$ double precision, parameter :: f485= 1.000d-3
$ double precision, parameter :: f486= 1.000d-3
$ double precision, parameter :: f487= 1.000d-3
$ double precision, parameter :: f488= 1.000d-3
$ double precision, parameter :: f489= 1.000d-3
$ double precision, parameter :: f490= 1.000d-3
$ double precision, parameter :: f491= 1.000d-3
$ double precision, parameter :: f492= 1.000d-3
$ double precision, parameter :: f493= 1.000d-3
$ double precision, parameter :: f494= 1.000d-3
$ double precision, parameter :: f495= 1.000d-3
$ double precision, parameter :: f496= 1.000d-3
$ double precision, parameter :: f497= 1.000d-3
$ double precision, parameter :: f498= 1.000d-3
$ double precision, parameter :: f499= 1.000d-3
$ double precision, parameter :: f500= 1.000d-3
$ double precision, parameter :: f501= 1.000d-3
$ double precision, parameter :: f502= 1.000d-3
$ double precision, parameter :: f503= 1.000d-3
$ double precision, parameter :: f504= 1.000d-3
$ double precision, parameter :: f505= 1.000d-3
$ double precision, parameter :: f506= 1.000d-3
#
# electron collision reaction
#
e + CH4 => e + CH4(v24)			! f0 * Bolsig+ CH4 -> CH4(v24)
e + CH4 => e + CH4(v13)			! f1 * Bolsig+ CH4 -> CH4(v13)
e + C2H6 => e + C2H6(v24)			! f2 * Bolsig+ C2H6 -> C2H6(v24)
e + C2H6 => e + C2H6(v13)			! f3 * Bolsig+ C2H6 -> C2H6(v13)
e + C2H4 => e + C2H4(v1)			! f4 * Bolsig+ C2H4 -> C2H4(v1)
e + C2H4 => e + C2H4(v2)			! f5 * Bolsig+ C2H4 -> C2H4(v2)
e + C2H2 => e + C2H2(v5)			! f6 * Bolsig+ C2H2 -> C2H2(v5)
e + C2H2 => e + C2H2(v2)			! f7 * Bolsig+ C2H2 -> C2H2(v2)
e + C2H2 => e + C2H2(v13)			! f8 * Bolsig+ C2H2 -> C2H2(v13)
e + C3H8 => e + C3H8(v1)			! f9 * Bolsig+ C3H8 -> C3H8(v1)
e + C3H8 => e + C3H8(v2)			! f10 * Bolsig+ C3H8 -> C3H8(v2)
e + C3H6 => e + C3H6(v)			! f11 * Bolsig+ C3H6 -> C3H6(v)
e + CH4 => e + CH3 + H			! f12 * Bolsig+ CH4 -> CH3 H
e + CH4 => e + CH2 + H2			! f13 * Bolsig+ CH4 -> CH2 H2
e + CH4 => e + CH + H2 + H			! f14 * Bolsig+ CH4 -> CH H2 H
e + CH3 => e + CH2 + H			! f15 * Bolsig+ CH3 -> CH2 H
e + CH3 => e + CH + H2			! f16 * Bolsig+ CH3 -> CH H2
e + CH2 => e + CH + H			! f17 * Bolsig+ CH2 -> CH H
e + CH4 => e + e + CH4^+			! f18 * Bolsig+ CH4 -> CH4^+
e + CH4 => e + e + H + CH3^+			! f19 * Bolsig+ CH4 -> H CH3^+
e + CH4 => e + e + H2 + CH2^+			! f20 * Bolsig+ CH4 -> H2 CH2^+
e + CH4 => e + e + H2 + H + CH^+			! f21 * Bolsig+ CH4 -> H2 H CH^+
e + CH3 => e + e + CH3^+			! f22 * Bolsig+ CH3 -> CH3^+
e + CH3 => e + e + H + CH2^+			! f23 * Bolsig+ CH3 -> H CH2^+
e + CH3 => e + e + H2 + CH^+			! f24 * Bolsig+ CH3 -> H2 CH^+
e + CH2 => e + e + CH2^+			! f25 * Bolsig+ CH2 -> CH2^+
e + CH2 => e + e + H + CH^+			! f26 * Bolsig+ CH2 -> H CH^+
e + CH => e + e + CH^+			! f27 * Bolsig+ CH -> CH^+
e + C2H6 => e + C2H5 + H			! f28 * Bolsig+ C2H6 -> C2H5 H
e + C2H6 => e + C2H4 + H2			! f29 * Bolsig+ C2H6 -> C2H4 H2
e + C2H6 => e + C2H3 + H2 + H			! f30 * Bolsig+ C2H6 -> C2H3 H2 H
e + C2H6 => e + C2H2 + H2 + H2			! f31 * Bolsig+ C2H6 -> C2H2 H2 H2
e + C2H6 => e + CH4 + CH2			! f32 * Bolsig+ C2H6 -> CH4 CH2
e + C2H6 => e + CH3 + CH3			! f33 * Bolsig+ C2H6 -> CH3 CH3
e + C2H5 => e + C2H4 + H			! f34 * Bolsig+ C2H5 -> C2H4 H
e + C2H5 => e + C2H3 + H2			! f35 * Bolsig+ C2H5 -> C2H3 H2
e + C2H5 => e + C2H3 + H + H			! f36 * Bolsig+ C2H5 -> C2H3 H H
e + C2H5 => e + C2H2 + H2 + H			! f37 * Bolsig+ C2H5 -> C2H2 H2 H
e + C2H5 => e + CH4 + CH			! f38 * Bolsig+ C2H5 -> CH4 CH
e + C2H5 => e + CH3 + CH2			! f39 * Bolsig+ C2H5 -> CH3 CH2
e + C2H4 => e + C2H3 + H			! f40 * Bolsig+ C2H4 -> C2H3 H
e + C2H4 => e + C2H2 + H2			! f41 * Bolsig+ C2H4 -> C2H2 H2
e + C2H4 => e + C2H2 + H + H			! f42 * Bolsig+ C2H4 -> C2H2 H H
e + C2H4 => e + CH3 + CH			! f43 * Bolsig+ C2H4 -> CH3 CH
e + C2H4 => e + CH2 + CH2			! f44 * Bolsig+ C2H4 -> CH2 CH2
e + C2H3 => e + C2H2 + H			! f45 * Bolsig+ C2H3 -> C2H2 H
e + C2H3 => e + CH2 + CH			! f46 * Bolsig+ C2H3 -> CH2 CH
e + C2H2 => e + CH + CH			! f47 * Bolsig+ C2H2 -> CH CH
e + C3H8 => e + C3H7 + H			! f48 * Bolsig+ C3H8 -> C3H7 H
e + C3H8 => e + C3H6 + H2			! f49 * Bolsig+ C3H8 -> C3H6 H2
e + C3H8 => e + C3H4 + H2 + H2			! f50 * Bolsig+ C3H8 -> C3H4 H2 H2
e + C3H8 => e + C2H6 + CH2			! f51 * Bolsig+ C3H8 -> C2H6 CH2
e + C3H8 => e + C2H5 + CH3			! f52 * Bolsig+ C3H8 -> C2H5 CH3
e + C3H8 => e + C2H4 + CH4			! f53 * Bolsig+ C3H8 -> C2H4 CH4
e + C3H7 => e + C3H6 + H			! f54 * Bolsig+ C3H7 -> C3H6 H
e + C3H7 => e + C3H5 + H2			! f55 * Bolsig+ C3H7 -> C3H5 H2
e + C3H7 => e + C3H4 + H2 + H			! f56 * Bolsig+ C3H7 -> C3H4 H2 H
e + C3H7 => e + C2H4 + CH3			! f57 * Bolsig+ C3H7 -> C2H4 CH3
e + C3H7 => e + C2H3 + CH4			! f58 * Bolsig+ C3H7 -> C2H3 CH4
e + C3H6 => e + C3H5 + H			! f59 * Bolsig+ C3H6 -> C3H5 H
e + C3H6 => e + C3H4 + H2			! f60 * Bolsig+ C3H6 -> C3H4 H2
e + C3H6 => e + C2H4 + CH2			! f61 * Bolsig+ C3H6 -> C2H4 CH2
e + C3H6 => e + C2H3 + CH3			! f62 * Bolsig+ C3H6 -> C2H3 CH3
e + C3H6 => e + C2H2 + CH4			! f63 * Bolsig+ C3H6 -> C2H2 CH4
e + C3H5 => e + C3H4 + H			! f64 * Bolsig+ C3H5 -> C3H4 H
e + C3H5 => e + C2H2 + CH3			! f65 * Bolsig+ C3H5 -> C2H2 CH3
e + C3H4 => e + C2H3 + CH			! f66 * Bolsig+ C3H4 -> C2H3 CH
e + C3H4 => e + C2H2 + CH2			! f67 * Bolsig+ C3H4 -> C2H2 CH2
e + C2H6 => e + e + C2H6^+			! f68 * Bolsig+ C2H6 -> C2H6^+
e + C2H6 => e + e + H + C2H5^+			! f69 * Bolsig+ C2H6 -> H C2H5^+
e + C2H6 => e + e + H2 + C2H4^+			! f70 * Bolsig+ C2H6 -> H2 C2H4^+
e + C2H6 => e + e + H2 + H + C2H3^+			! f71 * Bolsig+ C2H6 -> H2 H C2H3^+
e + C2H6 => e + e + H2 + H2 + C2H2^+			! f72 * Bolsig+ C2H6 -> H2 H2 C2H2^+
e + C2H6 => e + e + CH3 + CH3^+			! f73 * Bolsig+ C2H6 -> CH3 CH3^+
e + C2H6 => e + e + CH4 + CH2^+			! f74 * Bolsig+ C2H6 -> CH4 CH2^+
e + C2H5 => e + e + C2H5^+			! f75 * Bolsig+ C2H5 -> C2H5^+
e + C2H5 => e + e + H + C2H4^+			! f76 * Bolsig+ C2H5 -> H C2H4^+
e + C2H5 => e + e + H2 + C2H3^+			! f77 * Bolsig+ C2H5 -> H2 C2H3^+
e + C2H5 => e + e + H2 + H + C2H2^+			! f78 * Bolsig+ C2H5 -> H2 H C2H2^+
e + C2H5 => e + e + CH2 + CH3^+			! f79 * Bolsig+ C2H5 -> CH2 CH3^+
e + C2H5 => e + e + CH3 + CH2^+			! f80 * Bolsig+ C2H5 -> CH3 CH2^+
e + C2H5 => e + e + CH4 + CH^+			! f81 * Bolsig+ C2H5 -> CH4 CH^+
e + C2H4 => e + e + C2H4^+			! f82 * Bolsig+ C2H4 -> C2H4^+