ELEMENTS
e C H
END

SPECIES
e CH4 CH3 H
END
